
 + + + + + + + + + + + + + + + + + + + + + + + + + + + + + + + + + + + + + + + +
 + + + + + + + + + + + + + + + + + + + + + + + + + + + + + + + + + + + + + + + +
 + +                                                                         + +
 + +                      ASPEN PLUS CALCULATION HISTORY                     + +
 + +                                                                         + +
 + + + + + + + + + + + + + + + + + + + + + + + + + + + + + + + + + + + + + + + +
 + + + + + + + + + + + + + + + + + + + + + + + + + + + + + + + + + + + + + + + +

 ASPEN PLUS IS A TRADEMARK OF           HOTLINE:
 ASPEN TECHNOLOGY, INC.                 U.S.A. 888/996-7100
 781/221-6400                           EUROPE (44) 1189-226555

 PLATFORM: WIN-X64                                       JANUARY 31, 2022    
 VERSION: 38.0   Build 380                               MONDAY      
 INSTALLATION:                                           3:45:13 P.M.        

 THIS COPY OF ASPEN PLUS LICENSED TO INDIAN INSTITUTE OF TECH        


      ASPEN PLUS (R) IS A PROPRIETARY PRODUCT OF ASPEN TECHNOLOGY, INC.
      (ASPENTECH), AND MAY BE USED ONLY UNDER AGREEMENT WITH ASPENTECH.
      RESTRICTED RIGHTS LEGEND:  USE, REPRODUCTION, OR DISCLOSURE BY THE
      U.S. GOVERNMENT IS SUBJECT TO RESTRICTIONS SET FORTH IN 
      (i) FAR 52.227-14, Alt. III, (ii) FAR 52.227-19, (iii) DFARS 
      252.227-7013(c)(1)(ii), or (iv) THE ACCOMPANYING LICENSE AGREEMENT,
      AS APPLICABLE. FOR PURPOSES OF THE FAR, THIS SOFTWARE SHALL BE DEEMED
      TO BE "UNPUBLISHED" AND LICENSED WITH DISCLOSURE PROHIBITIONS.
      CONTRACTOR/SUBCONTRACTOR: ASPEN TECHNOLOGY, INC. 20 CROSBY DRIVE,
      BEDFORD, MA 01730.
 *** INPUT SUMMARY ***

 >>CURRENT RUN

   ORIGINAL RUN                           JANUARY 31, 2022    
   3:45:13 P.M.                           MONDAY      
   INPUT FILE: _1907tur.inm
   RUN ID : _1907tur
          1    ;
          2    ;Input file created by Aspen Plus Rel. 38.0 at 15:45:12 Mon Jan 31, 2022
          3    ;Directory C:\Users\HP\Documents\AspenTech\Aspen Plus V12.0  Runid CH18B020_ASSIGNMENT-2
          4    ;
          5
          6
          7    DYNAMICS
          8        DYNAMICS RESULTS=ON
          9
         10    IN-UNITS MET PRESSURE=bar TEMPERATURE=C DELTA-T=C PDROP=bar  &
         11            INVERSE-PRES='1/bar' SHORT-LENGTH=mm
         12
         13    DEF-STREAMS CONVEN ALL
         14
         15    MODEL-OPTION
         16
         17    DATABANKS 'APV120 PURE38' / 'APV120 AQUEOUS' / 'APV120 SOLIDS' &
         18             / 'APV120 INORGANIC' / 'APESV120 AP-EOS' /  &
         19            'NISTV120 NIST-TRC' / NOASPENPCD
         20
         21    PROP-SOURCES 'APV120 PURE38' / 'APV120 AQUEOUS' /  &
         22            'APV120 SOLIDS' / 'APV120 INORGANIC' / 'APESV120 AP-EOS' &
         23             / 'NISTV120 NIST-TRC'
         24
         25    COMPONENTS
         26        1-BUT-01 C4H10O-1 /
         27        ISOBU-01 C4H10O-3
         28
         29    SOLVE
         30        RUN-MODE MODE=SIM
         31
         32    FLOWSHEET
         33        BLOCK B1 IN=1 OUT=4 3
         34
         35    PROPERTIES UNIQUAC
         36
         37    PROP-DATA UNIQ-1
         38        IN-UNITS MET PRESSURE=bar TEMPERATURE=C DELTA-T=C PDROP=bar  &
         39            INVERSE-PRES='1/bar' SHORT-LENGTH=mm
         40        PROP-LIST UNIQ
         41        BPVAL 1-BUT-01 ISOBU-01 -.3237000000 136.0756000 0.0 0.0  &
         42            40.00000000 117.4600000 0.0
         43        BPVAL ISOBU-01 1-BUT-01 .7315000000 -298.1503000 0.0 0.0  &
         44            40.00000000 117.4600000 0.0
         45
         46    STREAM 1
         47        SUBSTREAM MIXED PRES=1. <atm> VFRAC=0.  &
         48            MOLE-FLOW=100. <lbmol/hr>
         49        MOLE-FRAC 1-BUT-01 0.5 / ISOBU-01 0.5
         50
         51    BLOCK B1 RADFRAC
         52        PARAM NSTAGE=26 ALGORITHM=STANDARD MAXOL=25 DAMPING=NONE
         53        COL-CONFIG CONDENSER=TOTAL
         54        FEEDS 1 15
         55        PRODUCTS 3 26 L / 4 1 L
         56        P-SPEC 1 1. <atm>
         57        COL-SPECS D:F=0.5 MOLE-RR=15.
         58        SPEC 1 MOLE-RECOV 0.902 COMPS=ISOBU-01 STREAMS=3  &
         59            BASE-STREAMS=1 SPEC-DESCRIP="Mole recovery, 0.902"
         60        VARY 1 MOLE-RR 1. 50.
         61
         62    EO-CONV-OPTI
         63
         64    STREAM-REPOR MOLEFLOW
         65
         66    PROPERTY-REP PCES
         67    ;
         68    ;
         69    ;
         70    ;
         71    ;
 *** INPUT TRANSLATOR MESSAGES ***

  *** THIS RUN USES THE PROPERTIES ENTERPRISE DATABASE ***
      SQLLOCALDB.APESV120 : (DATAVERSION - 38.0.0.14)                         
      SQLLOCALDB.APV120 : (DATAVERSION - 38.0.0.20)                           
      SQLLOCALDB.FACTV120 : (DATAVERSION - 38.0.0.1)                          
      SQLLOCALDB.NISTV120 : (DATAVERSION - 38.0.0.12)                         
 
 

 PDF updated                                                                      TIME =      0.90

 *** CALCULATION TRACE ***


 *** FLOWSHEET ANALYSIS MESSAGES ***

 FLOWSHEET CONNECTIVITY BY STREAMS       

   STREAM     SOURCE     DEST           STREAM     SOURCE     DEST
   1          ----       B1             4          B1         ----    
   3          B1         ----                                         

 FLOWSHEET CONNECTIVITY BY BLOCKS        

   BLOCK        INLETS                         OUTLETS
   B1           1                              4 3                         

      COMPUTATION ORDER FOR THE FLOWSHEET IS:
      B1 

Calculations begin                                                              time      0.08


 SIMULATION CALCULATIONS BEGIN                                                    TIME =      0.08

      ENTHALPY CALCULATION FOR INLET STREAM 1 OF BLOCK B1                         TIME =      0.08
      KODE = 3  NTRIAL =   4  T = 385.1443  P =  101325.      V =  0.00000      Q =  0.00000    

      UOS BLOCK B1       MODEL: RADFRAC                                           TIME =      0.08

       Convergence iterations:
         OL   ML   IL     Err/Tol
          1    1    2      13.638    
          2    7   23      10.882    
          3    5   16      23.975    
          4    5   18      35.700    
          5    5   19      34.687    
          6    5   17      25.893    
          7    2    4      13.147    
          8    2    4     0.27423    

  **  ERROR WHILE EXECUTING UNIT OPERATIONS BLOCK: "B1" (MODEL: "RADFRAC")      
                                                               (UDL03.5)        
      DESIGN SPEC IS NOT SATISFIED BECAUSE ONE OR MORE MANIPULATED              
      VARIABLE IS AT ITS BOUND.                                                 

      RESULTS FOR MANIPULATED VARIABLES:
      VARIABLE     FINAL VALUE    LOWER BOUND    UPPER BOUND
         1          1.0000         1.0000         50.000    

 Report Writer entered                                                            Time =      0.13

 Results generated                                                                Time =      0.18


*** INPUT SPECIFICATION MESSAGES ***

 CHANGES WERE MADE TO BLOCK        B1       01/31/2022   15:56:14:99 
 BLOCK B1 RADFRAC
     PARAM NSTAGE=26 ALGORITHM=STANDARD MAXOL=25 DAMPING=NONE
     COL-CONFIG CONDENSER=TOTAL
     FEEDS 1 15
     PRODUCTS 3 26 L / 4 1 L
     P-SPEC 1 1. <atm>
     COL-SPECS D:F=0.5 MOLE-RR=15.
     SPEC 1 MOLE-RECOV 0.902 COMPS=ISOBU-01 STREAMS=3  &
         BASE-STREAMS=1 SPEC-DESCRIP="Mole recovery, 0.902"
     VARY 1 MOLE-RR 15. 100.

 PDF updated                                                                      TIME =    660.15
 THIS COPY OF ASPEN PLUS LICENSED TO INDIAN INSTITUTE OF TECH        


Calculations begin                                                              time    660.31


      UOS BLOCK B1       MODEL: RADFRAC                                           TIME =    660.31

  *   WARNING WHILE EXECUTING UNIT OPERATIONS BLOCK: "B1" (MODEL: "RADFRAC")    
                                                               (UDL03D.11)      
      PREVIOUS SOLUTION VALUE OF MANIPULATED VARIABLE FOR "VARYNO= 1"           
      LIES OUTSIDE CURRENT LIMITS.  MANIPULATED VARIABLE IS RESET TO ITS        
      INITIAL VALUE.                                                            

       Convergence iterations:
         OL   ML   IL     Err/Tol
          1    4   11      35.329    
          2    2    5      1.0377    
          3    2    3     0.60670E-01

  **  ERROR WHILE EXECUTING UNIT OPERATIONS BLOCK: "B1" (MODEL: "RADFRAC")      
                                                               (UDL03.5)        
      DESIGN SPEC IS NOT SATISFIED BECAUSE ONE OR MORE MANIPULATED              
      VARIABLE IS AT ITS BOUND.                                                 

      RESULTS FOR MANIPULATED VARIABLES:
      VARIABLE     FINAL VALUE    LOWER BOUND    UPPER BOUND
         1          15.000         15.000         100.00    

 Report Writer entered                                                            Time =    660.35

 Results generated                                                                Time =    660.42


*** INPUT SPECIFICATION MESSAGES ***

 CHANGES WERE MADE TO BLOCK        B1       01/31/2022   16:04:44:99 
 BLOCK B1 RADFRAC
     PARAM NSTAGE=26 ALGORITHM=STANDARD MAXOL=25 DAMPING=NONE
     COL-CONFIG CONDENSER=TOTAL
     FEEDS 1 15
     PRODUCTS 3 26 L / 4 1 L
     P-SPEC 1 1. <atm>
     COL-SPECS D:F=0.5 MOLE-RR=15.

 PDF updated                                                                      TIME =   1170.44
 THIS COPY OF ASPEN PLUS LICENSED TO INDIAN INSTITUTE OF TECH        


Calculations begin                                                              time   1170.46


      UOS BLOCK B1       MODEL: RADFRAC                                           TIME =   1170.46

       Convergence iterations:
         OL   ML   IL     Err/Tol
          1    1    1     0.18522E-02

      CHECKING PHASE EQUILIBRIUM RESULTS                                          TIME =   1170.46

      CHECKING PHASE EQUILIBRIUM RESULTS                                          TIME =   1170.46

 Report Writer entered                                                            Time =   1170.47

 Results generated                                                                Time =   1170.49

RUN SAVED



 *** SUMMARY OF ERRORS ***

                  PHYSICAL
                  PROPERTY  SYSTEM  SIMULATION
 TERMINAL ERRORS      0        0         0
   SEVERE ERRORS      0        0         0
          ERRORS      0        0         2
        WARNINGS      0        0         1

 *** CALCULATION TRACE ***


<set objective = None>
<reset scope>
<reset scope>
<reset scope>
<reset scope>
<reset scope>
<reset scope>
<reset scope>
<reset scope>
<reset scope>


*** INPUT SPECIFICATION MESSAGES ***

 CHANGES WERE MADE TO BLOCK        B1       02/05/2022   20:58:54:99 
 BLOCK B1 RADFRAC
     PARAM NSTAGE=26 ALGORITHM=STANDARD MAXOL=25 DAMPING=NONE
     COL-CONFIG CONDENSER=TOTAL
     FEEDS FEED 15
     PRODUCTS BOTTOMS 26 L / DISTILLA 1 L
     P-SPEC 1 1. <atm>
     COL-SPECS D:F=0.5 MOLE-RR=15.

 RENAME       IS  NEW 02/05/2022   20:58:54:99 
 RENAME
     STREAM "3" "BOTTOMS" / "4" "DISTILLA" / "1" "FEED"

 PDF updated                                                                      TIME =    234.83
 THIS COPY OF ASPEN PLUS LICENSED TO INDIAN INSTITUTE OF TECH        
 
 

Calculations begin                                                              time    236.39


 SIMULATION CALCULATIONS BEGIN                                                    TIME =    236.40

      UOS BLOCK B1       MODEL: RADFRAC                                           TIME =    236.40

       Convergence iterations:
         OL   ML   IL     Err/Tol
          1    1    1     0.22819E-04

      CHECKING PHASE EQUILIBRIUM RESULTS                                          TIME =    237.07

      CHECKING PHASE EQUILIBRIUM RESULTS                                          TIME =    237.07
<reset scope>

 Report Writer entered                                                            Time =   2423.31

 Results generated                                                                Time =   2423.45

 Report Writer entered                                                            Time =   2423.75

 Results generated                                                                Time =   2423.77

RUN SAVED



 NO ERRORS OR WARNINGS GENERATED


*** INPUT SPECIFICATION MESSAGES ***

 CHANGES WERE MADE TO BLOCK        B1       02/05/2022   21:38:31:99 
 BLOCK B1 RADFRAC
     PARAM NSTAGE=26 ALGORITHM=STANDARD MAXOL=25 DAMPING=NONE
     COL-CONFIG CONDENSER=TOTAL
     FEEDS FEED 15
     PRODUCTS BOTTOMS 26 L / DISTILLA 1 L
     P-SPEC 1 10. <atm>
     COL-SPECS D:F=0.5 MOLE-RR=15.

 PDF updated                                                                      TIME =   2611.24
 THIS COPY OF ASPEN PLUS LICENSED TO INDIAN INSTITUTE OF TECH        
 
 


Calculations begin                                                              time   2611.30


      UOS BLOCK B1       MODEL: RADFRAC                                           TIME =   2611.30

  *   WARNING WHILE EXECUTING UNIT OPERATIONS BLOCK: "B1" (MODEL: "RADFRAC")    
                                                               (UDL03A.7260)    
      FEED PRESSURE  0.10132E+06 (N/SQM) OF STREAM FEED                         
      IS LOWER THAN STAGE  15 PRESSURE  0.10132E+07 (N/SQM).                    

       Convergence iterations:
         OL   ML   IL     Err/Tol
          1    1    4      1397.0    
          2    1    3      328.50    
          3    1    3      127.52    
          4    1    3      85.935    
          5    1    2      17.486    
          6    1    2      5.3999    
          7    1    2     0.65092    
<reset scope>


*** INPUT SPECIFICATION MESSAGES ***

 CHANGES WERE MADE TO STREAM       FEED     02/05/2022   21:39:33:99 
 STREAM FEED
     SUBSTREAM MIXED PRES=10. <atm> VFRAC=0.  &
         MOLE-FLOW=100. <lbmol/hr>
     MOLE-FRAC 1-BUT-01 0.5 / ISOBU-01 0.5

 PDF updated                                                                      TIME =   2673.03
 THIS COPY OF ASPEN PLUS LICENSED TO INDIAN INSTITUTE OF TECH        
 
 


Calculations begin                                                              time   2673.21


      ENTHALPY CALCULATION FOR INLET STREAM FEED OF BLOCK B1                      TIME =   2673.21
      KODE = 3  NTRIAL =   6  T = 471.8771  P = 1.013250E+06  V =  0.00000      Q =  0.00000    

      UOS BLOCK B1       MODEL: RADFRAC                                           TIME =   2673.24

       Convergence iterations:
         OL   ML   IL     Err/Tol
          1    1    3      1.7061    
          2    1    3     0.88439    

      CHECKING PHASE EQUILIBRIUM RESULTS                                          TIME =   2673.25

      CHECKING PHASE EQUILIBRIUM RESULTS                                          TIME =   2673.25


*** INPUT SPECIFICATION MESSAGES ***

 CHANGES WERE MADE TO BLOCK        B1       02/05/2022   21:39:55:99 
 BLOCK B1 RADFRAC
     PARAM NSTAGE=26 ALGORITHM=STANDARD MAXOL=25 DAMPING=NONE
     COL-CONFIG CONDENSER=TOTAL
     FEEDS FEED 15
     PRODUCTS BOTTOMS 26 L / DISTILLA 1 L
     P-SPEC 1 9. <atm>
     COL-SPECS D:F=0.5 MOLE-RR=15.

 PDF updated                                                                      TIME =   2695.77
 THIS COPY OF ASPEN PLUS LICENSED TO INDIAN INSTITUTE OF TECH        
 
 


Calculations begin                                                              time   2695.78


      UOS BLOCK B1       MODEL: RADFRAC                                           TIME =   2695.78

       Convergence iterations:
         OL   ML   IL     Err/Tol
          1    1    4      131.31    
          2    1    2      10.973    
          3    1    2      5.6377    
          4    1    2      1.5686    
          5    1    2     0.53241    

      CHECKING PHASE EQUILIBRIUM RESULTS                                          TIME =   2695.78

      CHECKING PHASE EQUILIBRIUM RESULTS                                          TIME =   2695.78


*** INPUT SPECIFICATION MESSAGES ***

 CHANGES WERE MADE TO BLOCK        B1       02/05/2022   21:40:57:99 
 BLOCK B1 RADFRAC
     PARAM NSTAGE=26 ALGORITHM=STANDARD MAXOL=25 DAMPING=NONE
     COL-CONFIG CONDENSER=TOTAL
     FEEDS FEED 15
     PRODUCTS BOTTOMS 26 L / DISTILLA 1 L
     P-SPEC 1 10. <atm>
     COL-SPECS D:F=0.5 MOLE-RR=15.

 PDF updated                                                                      TIME =   2757.17
 THIS COPY OF ASPEN PLUS LICENSED TO INDIAN INSTITUTE OF TECH        
 
 


Calculations begin                                                              time   2757.19


      UOS BLOCK B1       MODEL: RADFRAC                                           TIME =   2757.19

       Convergence iterations:
         OL   ML   IL     Err/Tol
          1    1    3      126.66    
          2    1    2      11.818    
          3    1    2      6.4310    
          4    1    2      1.9626    
          5    1    2     0.66061    

      CHECKING PHASE EQUILIBRIUM RESULTS                                          TIME =   2757.19

      CHECKING PHASE EQUILIBRIUM RESULTS                                          TIME =   2757.19


*** INPUT SPECIFICATION MESSAGES ***

 CHANGES WERE MADE TO STREAM       FEED     02/05/2022   21:42:13:99 
 STREAM FEED
     SUBSTREAM MIXED PRES=1. <atm> VFRAC=0.  &
         MOLE-FLOW=100. <lbmol/hr>
     MOLE-FRAC 1-BUT-01 0.5 / ISOBU-01 0.5

 PDF updated                                                                      TIME =   2833.80
 THIS COPY OF ASPEN PLUS LICENSED TO INDIAN INSTITUTE OF TECH        
 
 

      CHECKING PHASE EQUILIBRIUM RESULTS                                          TIME =   2833.81


Calculations begin                                                              time   2833.82


      ENTHALPY CALCULATION FOR INLET STREAM FEED OF BLOCK B1                      TIME =   2833.82
      KODE = 3  NTRIAL =   4  T = 385.1443  P =  101325.      V =  0.00000      Q =  0.00000    

      UOS BLOCK B1       MODEL: RADFRAC                                           TIME =   2833.82

  *   WARNING WHILE EXECUTING UNIT OPERATIONS BLOCK: "B1" (MODEL: "RADFRAC")    
                                                               (UDL03A.7260)    
      FEED PRESSURE  0.10132E+06 (N/SQM) OF STREAM FEED                         
      IS LOWER THAN STAGE  15 PRESSURE  0.10132E+07 (N/SQM).                    

       Convergence iterations:
         OL   ML   IL     Err/Tol
          1    1    3      1.7990    
          2    1    3     0.94282    


*** INPUT SPECIFICATION MESSAGES ***

 CHANGES WERE MADE TO BLOCK        B1       02/05/2022   21:43:54:99 
 BLOCK B1 RADFRAC
     PARAM NSTAGE=26 ALGORITHM=STANDARD MAXOL=25 DAMPING=NONE
     COL-CONFIG CONDENSER=TOTAL
     FEEDS FEED 15
     PRODUCTS BOTTOMS 26 L / DISTILLA 1 L
     P-SPEC 1 0.5 <atm>
     COL-SPECS D:F=0.5 MOLE-RR=15.

 PDF updated                                                                      TIME =   2934.39
 THIS COPY OF ASPEN PLUS LICENSED TO INDIAN INSTITUTE OF TECH        
 
 


Calculations begin                                                              time   2934.41


      UOS BLOCK B1       MODEL: RADFRAC                                           TIME =   2934.41

       Convergence iterations:
         OL   ML   IL     Err/Tol
          1    1    4      2921.1    
          2    1    3      388.28    
          3    1    2      81.873    
          4    1    2      7.3074    
          5    1    3      2.8163    
          6    1    2     0.22733    

      CHECKING PHASE EQUILIBRIUM RESULTS                                          TIME =   2934.41

      CHECKING PHASE EQUILIBRIUM RESULTS                                          TIME =   2934.41


*** INPUT SPECIFICATION MESSAGES ***

 CHANGES WERE MADE TO BLOCK        B1       02/05/2022   22:00:34:09 
 BLOCK B1 RADFRAC
     PARAM NSTAGE=26 ALGORITHM=STANDARD MAXOL=25 DAMPING=NONE
     COL-CONFIG CONDENSER=TOTAL
     FEEDS FEED 15
     PRODUCTS BOTTOMS 26 L / DISTILLA 1 L
     P-SPEC 1 1. <atm>
     COL-SPECS D:F=0.5 MOLE-RR=15.

 PDF updated                                                                      TIME =   3934.03
 THIS COPY OF ASPEN PLUS LICENSED TO INDIAN INSTITUTE OF TECH        
 
 


Calculations begin                                                              time   3934.08


      UOS BLOCK B1       MODEL: RADFRAC                                           TIME =   3934.08

       Convergence iterations:
         OL   ML   IL     Err/Tol
          1    1    4      241.71    
          2    1    2      11.550    
          3    1    3      1.4055    
          4    1    2     0.12968    

      CHECKING PHASE EQUILIBRIUM RESULTS                                          TIME =   3934.08

      CHECKING PHASE EQUILIBRIUM RESULTS                                          TIME =   3934.08


*** INPUT SPECIFICATION MESSAGES ***

 CHANGES WERE MADE TO BLOCK        B1       02/05/2022   22:01:31:99 
 BLOCK B1 RADFRAC
     PARAM NSTAGE=26 ALGORITHM=STANDARD MAXOL=25 DAMPING=NONE
     COL-CONFIG CONDENSER=TOTAL
     FEEDS FEED 15
     PRODUCTS BOTTOMS 26 L / DISTILLA 1 L
     P-SPEC 1 1. <atm>
     COL-SPECS D:F=0.2 MOLE-RR=15.

 PDF updated                                                                      TIME =   3991.42
 THIS COPY OF ASPEN PLUS LICENSED TO INDIAN INSTITUTE OF TECH        
 
 


Calculations begin                                                              time   3991.44


      UOS BLOCK B1       MODEL: RADFRAC                                           TIME =   3991.44

       Convergence iterations:
         OL   ML   IL     Err/Tol
          1    1    5      51.197    
          2    1    2     0.51586    

      CHECKING PHASE EQUILIBRIUM RESULTS                                          TIME =   3991.44

      CHECKING PHASE EQUILIBRIUM RESULTS                                          TIME =   3991.44


*** INPUT SPECIFICATION MESSAGES ***

 CHANGES WERE MADE TO BLOCK        B1       02/05/2022   22:02:09:99 
 BLOCK B1 RADFRAC
     PARAM NSTAGE=26 ALGORITHM=STANDARD MAXOL=25 DAMPING=NONE
     COL-CONFIG CONDENSER=TOTAL
     FEEDS FEED 15
     PRODUCTS BOTTOMS 26 L / DISTILLA 1 L
     P-SPEC 1 1. <atm>
     COL-SPECS D:F=0.19 MOLE-RR=15.

 PDF updated                                                                      TIME =   4029.46
 THIS COPY OF ASPEN PLUS LICENSED TO INDIAN INSTITUTE OF TECH        
 
 


Calculations begin                                                              time   4029.49


      UOS BLOCK B1       MODEL: RADFRAC                                           TIME =   4029.49

       Convergence iterations:
         OL   ML   IL     Err/Tol
          1    1    3     0.49548    

      CHECKING PHASE EQUILIBRIUM RESULTS                                          TIME =   4029.50

      CHECKING PHASE EQUILIBRIUM RESULTS                                          TIME =   4029.50


*** INPUT SPECIFICATION MESSAGES ***

 CHANGES WERE MADE TO BLOCK        B1       02/05/2022   22:02:48:99 
 BLOCK B1 RADFRAC
     PARAM NSTAGE=26 ALGORITHM=STANDARD MAXOL=25 DAMPING=NONE
     COL-CONFIG CONDENSER=TOTAL
     FEEDS FEED 15
     PRODUCTS BOTTOMS 26 L / DISTILLA 1 L
     P-SPEC 1 1. <atm>
     COL-SPECS D:F=0.18 MOLE-RR=15.

 PDF updated                                                                      TIME =   4068.20
 THIS COPY OF ASPEN PLUS LICENSED TO INDIAN INSTITUTE OF TECH        
 
 


Calculations begin                                                              time   4068.22


      UOS BLOCK B1       MODEL: RADFRAC                                           TIME =   4068.22

       Convergence iterations:
         OL   ML   IL     Err/Tol
          1    1    3     0.49205    

      CHECKING PHASE EQUILIBRIUM RESULTS                                          TIME =   4068.22

      CHECKING PHASE EQUILIBRIUM RESULTS                                          TIME =   4068.22


*** INPUT SPECIFICATION MESSAGES ***

 CHANGES WERE MADE TO BLOCK        B1       02/05/2022   22:07:38:99 
 BLOCK B1 RADFRAC
     PARAM NSTAGE=26 ALGORITHM=STANDARD MAXOL=25 DAMPING=NONE
     COL-CONFIG CONDENSER=TOTAL
     FEEDS FEED 15
     PRODUCTS BOTTOMS 26 L / DISTILLA 1 L
     P-SPEC 1 1. <atm>
     COL-SPECS D:F=0.5 MOLE-RR=15.

 PDF updated                                                                      TIME =   4358.04
 THIS COPY OF ASPEN PLUS LICENSED TO INDIAN INSTITUTE OF TECH        
 
 


Calculations begin                                                              time   4358.06


      UOS BLOCK B1       MODEL: RADFRAC                                           TIME =   4358.06

       Convergence iterations:
         OL   ML   IL     Err/Tol
          1    1    4      34.573    
          2    1    3      1.5381    
          3    1    3     0.25389    

      CHECKING PHASE EQUILIBRIUM RESULTS                                          TIME =   4358.06

      CHECKING PHASE EQUILIBRIUM RESULTS                                          TIME =   4358.06


*** INPUT SPECIFICATION MESSAGES ***

 CHANGES WERE MADE TO BLOCK        B1       02/05/2022   22:08:05:99 
 BLOCK B1 RADFRAC
     PARAM NSTAGE=26 ALGORITHM=STANDARD MAXOL=25 DAMPING=NONE
     COL-CONFIG CONDENSER=TOTAL
     FEEDS FEED 15
     PRODUCTS BOTTOMS 26 L / DISTILLA 1 L
     P-SPEC 1 1. <atm>
     COL-SPECS D:F=0.18 MOLE-RR=15.

 PDF updated                                                                      TIME =   4385.72
 THIS COPY OF ASPEN PLUS LICENSED TO INDIAN INSTITUTE OF TECH        
 
 


Calculations begin                                                              time   4385.74


      UOS BLOCK B1       MODEL: RADFRAC                                           TIME =   4385.74

       Convergence iterations:
         OL   ML   IL     Err/Tol
          1    1    5      52.423    
          2    1    2     0.57906    

      CHECKING PHASE EQUILIBRIUM RESULTS                                          TIME =   4385.74

      CHECKING PHASE EQUILIBRIUM RESULTS                                          TIME =   4385.74


*** INPUT SPECIFICATION MESSAGES ***

 CHANGES WERE MADE TO BLOCK        B1       02/05/2022   22:09:23:99 
 BLOCK B1 RADFRAC
     PARAM NSTAGE=26 ALGORITHM=STANDARD MAXOL=25 DAMPING=NONE
     COL-CONFIG CONDENSER=TOTAL
     FEEDS FEED 15
     PRODUCTS BOTTOMS 26 L / DISTILLA 1 L
     P-SPEC 1 1. <atm>
     COL-SPECS D:F=0.5 MOLE-RR=15.

 PDF updated                                                                      TIME =   4463.84
 THIS COPY OF ASPEN PLUS LICENSED TO INDIAN INSTITUTE OF TECH        
 
 


Calculations begin                                                              time   4463.86


      UOS BLOCK B1       MODEL: RADFRAC                                           TIME =   4463.86

       Convergence iterations:
         OL   ML   IL     Err/Tol
          1    1    4      34.581    
          2    1    3      1.5384    
          3    1    3     0.25448    

      CHECKING PHASE EQUILIBRIUM RESULTS                                          TIME =   4463.86

      CHECKING PHASE EQUILIBRIUM RESULTS                                          TIME =   4463.86


*** INPUT SPECIFICATION MESSAGES ***

 CHANGES WERE MADE TO BLOCK        B1       02/05/2022   22:09:50:99 
 BLOCK B1 RADFRAC
     PARAM NSTAGE=26 ALGORITHM=STANDARD MAXOL=25 DAMPING=NONE
     COL-CONFIG CONDENSER=TOTAL
     FEEDS FEED 15
     PRODUCTS BOTTOMS 26 L / DISTILLA 1 L
     P-SPEC 1 1. <atm>
     COL-SPECS D:F=0.5 MOLE-RR=20.

 PDF updated                                                                      TIME =   4490.10
 THIS COPY OF ASPEN PLUS LICENSED TO INDIAN INSTITUTE OF TECH        
 
 


Calculations begin                                                              time   4490.12


      UOS BLOCK B1       MODEL: RADFRAC                                           TIME =   4490.12

       Convergence iterations:
         OL   ML   IL     Err/Tol
          1    1    3      1.5329    
          2    1    2     0.53318E-01

      CHECKING PHASE EQUILIBRIUM RESULTS                                          TIME =   4490.12

      CHECKING PHASE EQUILIBRIUM RESULTS                                          TIME =   4490.12


*** INPUT SPECIFICATION MESSAGES ***

 CHANGES WERE MADE TO BLOCK        B1       02/05/2022   22:10:08:99 
 BLOCK B1 RADFRAC
     PARAM NSTAGE=26 ALGORITHM=STANDARD MAXOL=25 DAMPING=NONE
     COL-CONFIG CONDENSER=TOTAL
     FEEDS FEED 15
     PRODUCTS BOTTOMS 26 L / DISTILLA 1 L
     P-SPEC 1 1. <atm>
     COL-SPECS D:F=0.5 MOLE-RR=50.

 PDF updated                                                                      TIME =   4508.52
 THIS COPY OF ASPEN PLUS LICENSED TO INDIAN INSTITUTE OF TECH        
 
 


Calculations begin                                                              time   4508.54


      UOS BLOCK B1       MODEL: RADFRAC                                           TIME =   4508.54

       Convergence iterations:
         OL   ML   IL     Err/Tol
          1    1    3      2.8817    
          2    1    2     0.88036E-01

      CHECKING PHASE EQUILIBRIUM RESULTS                                          TIME =   4508.54

      CHECKING PHASE EQUILIBRIUM RESULTS                                          TIME =   4508.54


*** INPUT SPECIFICATION MESSAGES ***

 CHANGES WERE MADE TO BLOCK        B1       02/05/2022   22:10:23:99 
 BLOCK B1 RADFRAC
     PARAM NSTAGE=26 ALGORITHM=STANDARD MAXOL=25 DAMPING=NONE
     COL-CONFIG CONDENSER=TOTAL
     FEEDS FEED 15
     PRODUCTS BOTTOMS 26 L / DISTILLA 1 L
     P-SPEC 1 1. <atm>
     COL-SPECS D:F=0.5 MOLE-RR=100.

 PDF updated                                                                      TIME =   4523.00
 THIS COPY OF ASPEN PLUS LICENSED TO INDIAN INSTITUTE OF TECH        
 
 


Calculations begin                                                              time   4523.01


      UOS BLOCK B1       MODEL: RADFRAC                                           TIME =   4523.01

       Convergence iterations:
         OL   ML   IL     Err/Tol
          1    1    2     0.93754    

      CHECKING PHASE EQUILIBRIUM RESULTS                                          TIME =   4523.01

      CHECKING PHASE EQUILIBRIUM RESULTS                                          TIME =   4523.01


*** INPUT SPECIFICATION MESSAGES ***

 CHANGES WERE MADE TO BLOCK        B1       02/05/2022   22:11:09:99 
 BLOCK B1 RADFRAC
     PARAM NSTAGE=26 ALGORITHM=STANDARD MAXOL=25 DAMPING=NONE
     COL-CONFIG CONDENSER=TOTAL
     FEEDS FEED 15
     PRODUCTS BOTTOMS 26 L / DISTILLA 1 L
     P-SPEC 1 1. <atm>
     COL-SPECS D:F=0.5 MOLE-RR=200.

 PDF updated                                                                      TIME =   4569.88
 THIS COPY OF ASPEN PLUS LICENSED TO INDIAN INSTITUTE OF TECH        
 
 


Calculations begin                                                              time   4569.89


      UOS BLOCK B1       MODEL: RADFRAC                                           TIME =   4569.89

       Convergence iterations:
         OL   ML   IL     Err/Tol
          1    1    2     0.45660    

      CHECKING PHASE EQUILIBRIUM RESULTS                                          TIME =   4569.89

      CHECKING PHASE EQUILIBRIUM RESULTS                                          TIME =   4569.89


*** INPUT SPECIFICATION MESSAGES ***

 CHANGES WERE MADE TO BLOCK        B1       02/05/2022   22:12:03:09 
 BLOCK B1 RADFRAC
     PARAM NSTAGE=26 ALGORITHM=STANDARD MAXOL=25 DAMPING=NONE
     COL-CONFIG CONDENSER=TOTAL
     FEEDS FEED 9
     PRODUCTS BOTTOMS 26 L / DISTILLA 1 L
     P-SPEC 1 1. <atm>
     COL-SPECS D:F=0.5 MOLE-RR=15.

 PDF updated                                                                      TIME =   4622.95
 THIS COPY OF ASPEN PLUS LICENSED TO INDIAN INSTITUTE OF TECH        
 
 


Calculations begin                                                              time   4622.98


      UOS BLOCK B1       MODEL: RADFRAC                                           TIME =   4622.98

       Convergence iterations:
         OL   ML   IL     Err/Tol
          1    1    8      30.213    
          2    1    2     0.86062    

      CHECKING PHASE EQUILIBRIUM RESULTS                                          TIME =   4623.05

      CHECKING PHASE EQUILIBRIUM RESULTS                                          TIME =   4623.05


*** INPUT SPECIFICATION MESSAGES ***

 CHANGES WERE MADE TO BLOCK        B1       02/05/2022   22:22:36:99 
 BLOCK B1 RADFRAC
     PARAM NSTAGE=26 ALGORITHM=STANDARD MAXOL=25 DAMPING=NONE
     COL-CONFIG CONDENSER=TOTAL
     FEEDS FEED 5
     PRODUCTS BOTTOMS 26 L / DISTILLA 1 L
     P-SPEC 1 1. <atm>
     COL-SPECS D:F=0.5 MOLE-RR=15.

 PDF updated                                                                      TIME =   5256.26
 THIS COPY OF ASPEN PLUS LICENSED TO INDIAN INSTITUTE OF TECH        
 
 


Calculations begin                                                              time   5256.28


      UOS BLOCK B1       MODEL: RADFRAC                                           TIME =   5256.28

       Convergence iterations:
         OL   ML   IL     Err/Tol
          1    1    5      17.115    
          2    1    2     0.24192    

      CHECKING PHASE EQUILIBRIUM RESULTS                                          TIME =   5256.28

      CHECKING PHASE EQUILIBRIUM RESULTS                                          TIME =   5256.28


*** INPUT SPECIFICATION MESSAGES ***

 CHANGES WERE MADE TO BLOCK        B1       02/05/2022   22:24:02:99 
 BLOCK B1 RADFRAC
     PARAM NSTAGE=26 ALGORITHM=STANDARD MAXOL=25 DAMPING=NONE
     COL-CONFIG CONDENSER=TOTAL
     FEEDS FEED 20
     PRODUCTS BOTTOMS 26 L / DISTILLA 1 L
     P-SPEC 1 1. <atm>
     COL-SPECS D:F=0.5 MOLE-RR=15.

 PDF updated                                                                      TIME =   5342.69
 THIS COPY OF ASPEN PLUS LICENSED TO INDIAN INSTITUTE OF TECH        
 
 


Calculations begin                                                              time   5342.70


      UOS BLOCK B1       MODEL: RADFRAC                                           TIME =   5342.70

       Convergence iterations:
         OL   ML   IL     Err/Tol
          1    1    4      34.991    
          2    1    2      1.3953    
          3    1    3     0.18925    

      CHECKING PHASE EQUILIBRIUM RESULTS                                          TIME =   5342.70

      CHECKING PHASE EQUILIBRIUM RESULTS                                          TIME =   5342.70


*** INPUT SPECIFICATION MESSAGES ***

 CHANGES WERE MADE TO BLOCK        B1       02/05/2022   22:25:21:99 
 BLOCK B1 RADFRAC
     PARAM NSTAGE=26 ALGORITHM=STANDARD MAXOL=25 DAMPING=NONE
     COL-CONFIG CONDENSER=TOTAL
     FEEDS FEED 15
     PRODUCTS BOTTOMS 26 L / DISTILLA 1 L
     P-SPEC 1 1. <atm>
     COL-SPECS D:F=0.5 MOLE-RR=15.

 PDF updated                                                                      TIME =   5421.58
 THIS COPY OF ASPEN PLUS LICENSED TO INDIAN INSTITUTE OF TECH        
 
 


Calculations begin                                                              time   5421.60


      UOS BLOCK B1       MODEL: RADFRAC                                           TIME =   5421.60

       Convergence iterations:
         OL   ML   IL     Err/Tol
          1    1    4      19.798    
          2    1    2     0.39927    

      CHECKING PHASE EQUILIBRIUM RESULTS                                          TIME =   5421.61

      CHECKING PHASE EQUILIBRIUM RESULTS                                          TIME =   5421.62


*** INPUT SPECIFICATION MESSAGES ***

 CHANGES WERE MADE TO BLOCK        B1       02/05/2022   22:25:52:99 
 BLOCK B1 RADFRAC
     PARAM NSTAGE=26 ALGORITHM=STANDARD MAXOL=25 DAMPING=NONE
     COL-CONFIG CONDENSER=TOTAL
     FEEDS FEED 20
     PRODUCTS BOTTOMS 26 L / DISTILLA 1 L
     P-SPEC 1 1. <atm>
     COL-SPECS D:F=0.5 MOLE-RR=15.

 PDF updated                                                                      TIME =   5452.79
 THIS COPY OF ASPEN PLUS LICENSED TO INDIAN INSTITUTE OF TECH        
 
 


Calculations begin                                                              time   5452.81


      UOS BLOCK B1       MODEL: RADFRAC                                           TIME =   5452.81

       Convergence iterations:
         OL   ML   IL     Err/Tol
          1    1    5      18.005    
          2    1    2     0.68381    

      CHECKING PHASE EQUILIBRIUM RESULTS                                          TIME =   5452.81

      CHECKING PHASE EQUILIBRIUM RESULTS                                          TIME =   5452.81


*** INPUT SPECIFICATION MESSAGES ***

 CHANGES WERE MADE TO BLOCK        B1       02/05/2022   22:27:08:99 
 BLOCK B1 RADFRAC
     PARAM NSTAGE=26 ALGORITHM=STANDARD MAXOL=25 DAMPING=NONE
     COL-CONFIG CONDENSER=TOTAL
     FEEDS FEED 15
     PRODUCTS BOTTOMS 26 L / DISTILLA 1 L
     P-SPEC 1 1. <atm>
     COL-SPECS D:F=0.5 MOLE-RR=15.

 PDF updated                                                                      TIME =   5528.08
 THIS COPY OF ASPEN PLUS LICENSED TO INDIAN INSTITUTE OF TECH        
 
 


Calculations begin                                                              time   5528.10


      UOS BLOCK B1       MODEL: RADFRAC                                           TIME =   5528.10

       Convergence iterations:
         OL   ML   IL     Err/Tol
          1    1    4      19.776    
          2    1    2     0.39878    

      CHECKING PHASE EQUILIBRIUM RESULTS                                          TIME =   5528.10

      CHECKING PHASE EQUILIBRIUM RESULTS                                          TIME =   5528.10


*** INPUT SPECIFICATION MESSAGES ***

 CHANGES WERE MADE TO BLOCK        B1       02/05/2022   22:28:56:99 
 BLOCK B1 RADFRAC
     PARAM NSTAGE=34 ALGORITHM=STANDARD MAXOL=25 DAMPING=NONE
     COL-CONFIG CONDENSER=TOTAL
     FEEDS FEED 15
     PRODUCTS BOTTOMS 34 L / DISTILLA 1 L
     P-SPEC 1 1. <atm>
     COL-SPECS D:F=0.5 MOLE-RR=15.

 FLOWSHEET    IS  NEW 02/05/2022   22:28:56:99 
 FLOWSHEET
     BLOCK B1 IN=FEED OUT=DISTILLA BOTTOMS

 PDF updated                                                                      TIME =   5636.20
 THIS COPY OF ASPEN PLUS LICENSED TO INDIAN INSTITUTE OF TECH        
 
 


Calculations begin                                                              time   5636.34


      UOS BLOCK B1       MODEL: RADFRAC                                           TIME =   5636.34

       Convergence iterations:
         OL   ML   IL     Err/Tol
          1    1    5      12.778    
          2    1    3     0.53875    

      CHECKING PHASE EQUILIBRIUM RESULTS                                          TIME =   5636.35

      CHECKING PHASE EQUILIBRIUM RESULTS                                          TIME =   5636.35


*** INPUT SPECIFICATION MESSAGES ***

 CHANGES WERE MADE TO BLOCK        B1       02/05/2022   22:29:10:99 
 BLOCK B1 RADFRAC
     PARAM NSTAGE=45 ALGORITHM=STANDARD MAXOL=25 DAMPING=NONE
     COL-CONFIG CONDENSER=TOTAL
     FEEDS FEED 15
     PRODUCTS BOTTOMS 45 L / DISTILLA 1 L
     P-SPEC 1 1. <atm>
     COL-SPECS D:F=0.5 MOLE-RR=15.

 FLOWSHEET    IS GENERATED BECAUSE OF OTHER CHANGES 02/05/2022   22:29:10:99 
 FLOWSHEET
     BLOCK B1 IN=FEED OUT=DISTILLA BOTTOMS

 PDF updated                                                                      TIME =   5650.48
 THIS COPY OF ASPEN PLUS LICENSED TO INDIAN INSTITUTE OF TECH        
 
 


Calculations begin                                                              time   5650.53


      UOS BLOCK B1       MODEL: RADFRAC                                           TIME =   5650.53

       Convergence iterations:
         OL   ML   IL     Err/Tol
          1    1    6      15.192    
          2    1    3     0.36447    

      CHECKING PHASE EQUILIBRIUM RESULTS                                          TIME =   5650.55

      CHECKING PHASE EQUILIBRIUM RESULTS                                          TIME =   5650.55


*** INPUT SPECIFICATION MESSAGES ***

 CHANGES WERE MADE TO BLOCK        B1       02/05/2022   22:29:28:99 
 BLOCK B1 RADFRAC
     PARAM NSTAGE=40 ALGORITHM=STANDARD MAXOL=25 DAMPING=NONE
     COL-CONFIG CONDENSER=TOTAL
     FEEDS FEED 15
     PRODUCTS BOTTOMS 40 L / DISTILLA 1 L
     P-SPEC 1 1. <atm>
     COL-SPECS D:F=0.5 MOLE-RR=15.

 FLOWSHEET    IS GENERATED BECAUSE OF OTHER CHANGES 02/05/2022   22:29:28:99 
 FLOWSHEET
     BLOCK B1 IN=FEED OUT=DISTILLA BOTTOMS

 PDF updated                                                                      TIME =   5668.09
 THIS COPY OF ASPEN PLUS LICENSED TO INDIAN INSTITUTE OF TECH        
 
 


Calculations begin                                                              time   5668.11


      UOS BLOCK B1       MODEL: RADFRAC                                           TIME =   5668.11

       Convergence iterations:
         OL   ML   IL     Err/Tol
          1    1    5      4.9038    
          2    1    3     0.11721    

      CHECKING PHASE EQUILIBRIUM RESULTS                                          TIME =   5668.13

      CHECKING PHASE EQUILIBRIUM RESULTS                                          TIME =   5668.13


*** INPUT SPECIFICATION MESSAGES ***

 CHANGES WERE MADE TO BLOCK        B1       02/05/2022   22:31:10:99 
 BLOCK B1 RADFRAC
     PARAM NSTAGE=48 ALGORITHM=STANDARD MAXOL=25 DAMPING=NONE
     COL-CONFIG CONDENSER=TOTAL
     FEEDS FEED 15
     PRODUCTS BOTTOMS 48 L / DISTILLA 1 L
     P-SPEC 1 1. <atm>
     COL-SPECS D:F=0.5 MOLE-RR=15.

 FLOWSHEET    IS GENERATED BECAUSE OF OTHER CHANGES 02/05/2022   22:31:10:99 
 FLOWSHEET
     BLOCK B1 IN=FEED OUT=DISTILLA BOTTOMS

 PDF updated                                                                      TIME =   5770.36
 THIS COPY OF ASPEN PLUS LICENSED TO INDIAN INSTITUTE OF TECH        
 
 


Calculations begin                                                              time   5770.43


      UOS BLOCK B1       MODEL: RADFRAC                                           TIME =   5770.43

       Convergence iterations:
         OL   ML   IL     Err/Tol
          1    1    6      10.420    
          2    1    3     0.44762    

      CHECKING PHASE EQUILIBRIUM RESULTS                                          TIME =   5770.45

      CHECKING PHASE EQUILIBRIUM RESULTS                                          TIME =   5770.46


*** INPUT SPECIFICATION MESSAGES ***

 CHANGES WERE MADE TO BLOCK        B1       02/05/2022   22:31:27:99 
 BLOCK B1 RADFRAC
     PARAM NSTAGE=45 ALGORITHM=STANDARD MAXOL=25 DAMPING=NONE
     COL-CONFIG CONDENSER=TOTAL
     FEEDS FEED 15
     PRODUCTS BOTTOMS 45 L / DISTILLA 1 L
     P-SPEC 1 1. <atm>
     COL-SPECS D:F=0.5 MOLE-RR=15.

 FLOWSHEET    IS GENERATED BECAUSE OF OTHER CHANGES 02/05/2022   22:31:27:99 
 FLOWSHEET
     BLOCK B1 IN=FEED OUT=DISTILLA BOTTOMS

 PDF updated                                                                      TIME =   5787.54
 THIS COPY OF ASPEN PLUS LICENSED TO INDIAN INSTITUTE OF TECH        
 
 


Calculations begin                                                              time   5787.59


      UOS BLOCK B1       MODEL: RADFRAC                                           TIME =   5787.59

       Convergence iterations:
         OL   ML   IL     Err/Tol
          1    1    5      3.1534    
          2    1    3     0.14733    

      CHECKING PHASE EQUILIBRIUM RESULTS                                          TIME =   5787.59

      CHECKING PHASE EQUILIBRIUM RESULTS                                          TIME =   5787.59


*** INPUT SPECIFICATION MESSAGES ***

 CHANGES WERE MADE TO BLOCK        B1       02/05/2022   22:31:48:99 
 BLOCK B1 RADFRAC
     PARAM NSTAGE=45 ALGORITHM=STANDARD MAXOL=25 DAMPING=NONE
     COL-CONFIG CONDENSER=TOTAL
     FEEDS FEED 25
     PRODUCTS BOTTOMS 45 L / DISTILLA 1 L
     P-SPEC 1 1. <atm>
     COL-SPECS D:F=0.5 MOLE-RR=15.

 PDF updated                                                                      TIME =   5808.58
 THIS COPY OF ASPEN PLUS LICENSED TO INDIAN INSTITUTE OF TECH        
 
 


Calculations begin                                                              time   5808.64


      UOS BLOCK B1       MODEL: RADFRAC                                           TIME =   5808.64

       Convergence iterations:
         OL   ML   IL     Err/Tol
          1    1    5      15.361    
          2    1    2     0.96952    

      CHECKING PHASE EQUILIBRIUM RESULTS                                          TIME =   5808.66

      CHECKING PHASE EQUILIBRIUM RESULTS                                          TIME =   5808.66


*** INPUT SPECIFICATION MESSAGES ***

 CHANGES WERE MADE TO BLOCK        B1       02/05/2022   22:36:59:99 
 BLOCK B1 RADFRAC
     PARAM NSTAGE=45 ALGORITHM=STANDARD MAXOL=25 DAMPING=NONE
     COL-CONFIG CONDENSER=TOTAL
     FEEDS FEED 20
     PRODUCTS BOTTOMS 45 L / DISTILLA 1 L
     P-SPEC 1 1. <atm>
     COL-SPECS D:F=0.5 MOLE-RR=15.

 PDF updated                                                                      TIME =   6119.41
 THIS COPY OF ASPEN PLUS LICENSED TO INDIAN INSTITUTE OF TECH        
 
 


Calculations begin                                                              time   6119.45


      UOS BLOCK B1       MODEL: RADFRAC                                           TIME =   6119.45

       Convergence iterations:
         OL   ML   IL     Err/Tol
          1    1    5      12.041    
          2    1    3     0.68457    

      CHECKING PHASE EQUILIBRIUM RESULTS                                          TIME =   6119.45

      CHECKING PHASE EQUILIBRIUM RESULTS                                          TIME =   6119.46


*** INPUT SPECIFICATION MESSAGES ***

 CHANGES WERE MADE TO BLOCK        B1       02/05/2022   22:37:19:99 
 BLOCK B1 RADFRAC
     PARAM NSTAGE=40 ALGORITHM=STANDARD MAXOL=25 DAMPING=NONE
     COL-CONFIG CONDENSER=TOTAL
     FEEDS FEED 20
     PRODUCTS BOTTOMS 40 L / DISTILLA 1 L
     P-SPEC 1 1. <atm>
     COL-SPECS D:F=0.5 MOLE-RR=15.

 FLOWSHEET    IS GENERATED BECAUSE OF OTHER CHANGES 02/05/2022   22:37:19:99 
 FLOWSHEET
     BLOCK B1 IN=FEED OUT=DISTILLA BOTTOMS

 PDF updated                                                                      TIME =   6139.15
 THIS COPY OF ASPEN PLUS LICENSED TO INDIAN INSTITUTE OF TECH        
 
 


Calculations begin                                                              time   6139.21


      UOS BLOCK B1       MODEL: RADFRAC                                           TIME =   6139.21

       Convergence iterations:
         OL   ML   IL     Err/Tol
          1    1    5      5.2816    
          2    1    3     0.18179    

      CHECKING PHASE EQUILIBRIUM RESULTS                                          TIME =   6139.24

      CHECKING PHASE EQUILIBRIUM RESULTS                                          TIME =   6139.24


*** INPUT SPECIFICATION MESSAGES ***

 CHANGES WERE MADE TO BLOCK        B1       02/05/2022   22:37:30:99 
 BLOCK B1 RADFRAC
     PARAM NSTAGE=35 ALGORITHM=STANDARD MAXOL=25 DAMPING=NONE
     COL-CONFIG CONDENSER=TOTAL
     FEEDS FEED 20
     PRODUCTS BOTTOMS 35 L / DISTILLA 1 L
     P-SPEC 1 1. <atm>
     COL-SPECS D:F=0.5 MOLE-RR=15.

 FLOWSHEET    IS GENERATED BECAUSE OF OTHER CHANGES 02/05/2022   22:37:30:99 
 FLOWSHEET
     BLOCK B1 IN=FEED OUT=DISTILLA BOTTOMS

 PDF updated                                                                      TIME =   6150.40
 THIS COPY OF ASPEN PLUS LICENSED TO INDIAN INSTITUTE OF TECH        
 
 


Calculations begin                                                              time   6150.45


      UOS BLOCK B1       MODEL: RADFRAC                                           TIME =   6150.45

       Convergence iterations:
         OL   ML   IL     Err/Tol
          1    1    4      7.1728    
          2    1    2     0.16759    

      CHECKING PHASE EQUILIBRIUM RESULTS                                          TIME =   6150.45

      CHECKING PHASE EQUILIBRIUM RESULTS                                          TIME =   6150.45


*** INPUT SPECIFICATION MESSAGES ***

 CHANGES WERE MADE TO BLOCK        B1       02/05/2022   22:37:45:09 
 BLOCK B1 RADFRAC
     PARAM NSTAGE=33 ALGORITHM=STANDARD MAXOL=25 DAMPING=NONE
     COL-CONFIG CONDENSER=TOTAL
     FEEDS FEED 20
     PRODUCTS BOTTOMS 33 L / DISTILLA 1 L
     P-SPEC 1 1. <atm>
     COL-SPECS D:F=0.5 MOLE-RR=15.

 FLOWSHEET    IS GENERATED BECAUSE OF OTHER CHANGES 02/05/2022   22:37:45:09 
 FLOWSHEET
     BLOCK B1 IN=FEED OUT=DISTILLA BOTTOMS

 PDF updated                                                                      TIME =   6164.98
 THIS COPY OF ASPEN PLUS LICENSED TO INDIAN INSTITUTE OF TECH        
 
 


Calculations begin                                                              time   6165.04


      UOS BLOCK B1       MODEL: RADFRAC                                           TIME =   6165.04

       Convergence iterations:
         OL   ML   IL     Err/Tol
          1    1    4      3.7643    
          2    1    3     0.82708E-01

      CHECKING PHASE EQUILIBRIUM RESULTS                                          TIME =   6165.04

      CHECKING PHASE EQUILIBRIUM RESULTS                                          TIME =   6165.04


*** INPUT SPECIFICATION MESSAGES ***

 CHANGES WERE MADE TO BLOCK        B1       02/05/2022   22:38:07:99 
 BLOCK B1 RADFRAC
     PARAM NSTAGE=33 ALGORITHM=STANDARD MAXOL=25 DAMPING=NONE
     COL-CONFIG CONDENSER=TOTAL
     FEEDS FEED 18
     PRODUCTS BOTTOMS 33 L / DISTILLA 1 L
     P-SPEC 1 1. <atm>
     COL-SPECS D:F=0.5 MOLE-RR=15.

 PDF updated                                                                      TIME =   6187.02
 THIS COPY OF ASPEN PLUS LICENSED TO INDIAN INSTITUTE OF TECH        
 
 


Calculations begin                                                              time   6187.04


      UOS BLOCK B1       MODEL: RADFRAC                                           TIME =   6187.04

       Convergence iterations:
         OL   ML   IL     Err/Tol
          1    1    4      6.5654    
          2    1    2     0.16618    

      CHECKING PHASE EQUILIBRIUM RESULTS                                          TIME =   6187.04

      CHECKING PHASE EQUILIBRIUM RESULTS                                          TIME =   6187.05


*** INPUT SPECIFICATION MESSAGES ***

 CHANGES WERE MADE TO BLOCK        B1       02/05/2022   22:38:20:99 
 BLOCK B1 RADFRAC
     PARAM NSTAGE=34 ALGORITHM=STANDARD MAXOL=25 DAMPING=NONE
     COL-CONFIG CONDENSER=TOTAL
     FEEDS FEED 18
     PRODUCTS BOTTOMS 34 L / DISTILLA 1 L
     P-SPEC 1 1. <atm>
     COL-SPECS D:F=0.5 MOLE-RR=15.

 FLOWSHEET    IS GENERATED BECAUSE OF OTHER CHANGES 02/05/2022   22:38:20:99 
 FLOWSHEET
     BLOCK B1 IN=FEED OUT=DISTILLA BOTTOMS

 PDF updated                                                                      TIME =   6200.29
 THIS COPY OF ASPEN PLUS LICENSED TO INDIAN INSTITUTE OF TECH        
 
 


Calculations begin                                                              time   6200.31


      UOS BLOCK B1       MODEL: RADFRAC                                           TIME =   6200.31

       Convergence iterations:
         OL   ML   IL     Err/Tol
          1    1    4      1.9889    
          2    1    3     0.39333E-01

      CHECKING PHASE EQUILIBRIUM RESULTS                                          TIME =   6200.31

      CHECKING PHASE EQUILIBRIUM RESULTS                                          TIME =   6200.31


*** INPUT SPECIFICATION MESSAGES ***

 BLOCK        B1       IS GENERATED BECAUSE OF OTHER CHANGES 02/05/2022   22:38:44:99 
 BLOCK B1 RADFRAC
     PARAM NSTAGE=34 ALGORITHM=STANDARD MAXOL=25 DAMPING=NONE
     COL-CONFIG CONDENSER=TOTAL
     FEEDS FEED 18
     PRODUCTS BOTTOMS 34 L / DISTILLA 1 L
     P-SPEC 1 1. <atm>
     COL-SPECS D:F=0.5 MOLE-RR=15.

 FLOWSHEET    IS GENERATED BECAUSE OF OTHER CHANGES 02/05/2022   22:38:44:99 
 FLOWSHEET
     BLOCK B1 IN=FEED OUT=DISTILLA BOTTOMS

 PDF updated                                                                      TIME =   6224.48
 THIS COPY OF ASPEN PLUS LICENSED TO INDIAN INSTITUTE OF TECH        
 
 


Calculations begin                                                              time   6224.50


      UOS BLOCK B1       MODEL: RADFRAC                                           TIME =   6224.50

       Convergence iterations:
         OL   ML   IL     Err/Tol
          1    1    1     0.98621E-03

      CHECKING PHASE EQUILIBRIUM RESULTS                                          TIME =   6224.50

      CHECKING PHASE EQUILIBRIUM RESULTS                                          TIME =   6224.50

 Report Writer entered                                                            Time =   6414.50

 Results generated                                                                Time =   6414.54

 Report Writer entered                                                            Time =   6414.81

 Results generated                                                                Time =   6414.82

RUN SAVED



 *** SUMMARY OF ERRORS ***

                  PHYSICAL
                  PROPERTY  SYSTEM  SIMULATION
 TERMINAL ERRORS      0        0         0
   SEVERE ERRORS      0        0         0
          ERRORS      0        0         0
        WARNINGS      0        0         2


*** INPUT SPECIFICATION MESSAGES ***

 CHANGES WERE MADE TO BLOCK        B1       02/05/2022   22:42:35:99 
 BLOCK B1 RADFRAC
     PARAM NSTAGE=40 ALGORITHM=STANDARD MAXOL=25 DAMPING=NONE
     COL-CONFIG CONDENSER=TOTAL
     FEEDS FEED 18
     PRODUCTS BOTTOMS 40 L / DISTILLA 1 L
     P-SPEC 1 1. <atm>
     COL-SPECS D:F=0.5 MOLE-RR=15.

 FLOWSHEET    IS GENERATED BECAUSE OF OTHER CHANGES 02/05/2022   22:42:35:99 
 FLOWSHEET
     BLOCK B1 IN=FEED OUT=DISTILLA BOTTOMS

 PDF updated                                                                      TIME =   6455.72
 THIS COPY OF ASPEN PLUS LICENSED TO INDIAN INSTITUTE OF TECH        
 
 


Calculations begin                                                              time   6455.78


      UOS BLOCK B1       MODEL: RADFRAC                                           TIME =   6455.78

       Convergence iterations:
         OL   ML   IL     Err/Tol
          1    1    5      8.2272    
          2    1    3     0.42106    

      CHECKING PHASE EQUILIBRIUM RESULTS                                          TIME =   6455.78

      CHECKING PHASE EQUILIBRIUM RESULTS                                          TIME =   6455.78


*** INPUT SPECIFICATION MESSAGES ***

 CHANGES WERE MADE TO BLOCK        B1       02/05/2022   22:42:57:99 
 BLOCK B1 RADFRAC
     PARAM NSTAGE=40 ALGORITHM=STANDARD MAXOL=25 DAMPING=NONE
     COL-CONFIG CONDENSER=TOTAL
     FEEDS FEED 25
     PRODUCTS BOTTOMS 40 L / DISTILLA 1 L
     P-SPEC 1 1. <atm>
     COL-SPECS D:F=0.5 MOLE-RR=15.

 PDF updated                                                                      TIME =   6477.07
 THIS COPY OF ASPEN PLUS LICENSED TO INDIAN INSTITUTE OF TECH        
 
 


Calculations begin                                                              time   6477.09


      UOS BLOCK B1       MODEL: RADFRAC                                           TIME =   6477.09

       Convergence iterations:
         OL   ML   IL     Err/Tol
          1    1    5      13.184    
          2    1    2     0.68392    

      CHECKING PHASE EQUILIBRIUM RESULTS                                          TIME =   6477.09

      CHECKING PHASE EQUILIBRIUM RESULTS                                          TIME =   6477.09

 Report Writer entered                                                            Time =   6504.79

 Results generated                                                                Time =   6504.86

 Report Writer entered                                                            Time =   6505.18

 Results generated                                                                Time =   6505.20

RUN SAVED



 *** SUMMARY OF ERRORS ***

                  PHYSICAL
                  PROPERTY  SYSTEM  SIMULATION
 TERMINAL ERRORS      0        0         0
   SEVERE ERRORS      0        0         0
          ERRORS      0        0         0
        WARNINGS      0        0         2


*** INPUT SPECIFICATION MESSAGES ***

 CHANGES WERE MADE TO BLOCK        B1       02/05/2022   22:44:37:99 
 BLOCK B1 RADFRAC
     PARAM NSTAGE=50 ALGORITHM=STANDARD MAXOL=25 DAMPING=NONE
     COL-CONFIG CONDENSER=TOTAL
     FEEDS FEED 15
     PRODUCTS BOTTOMS 50 L / DISTILLA 1 L
     P-SPEC 1 1. <atm>
     COL-SPECS D:F=0.5 MOLE-RR=15.

 FLOWSHEET    IS GENERATED BECAUSE OF OTHER CHANGES 02/05/2022   22:44:37:99 
 FLOWSHEET
     BLOCK B1 IN=FEED OUT=DISTILLA BOTTOMS

 PDF updated                                                                      TIME =   6577.87
 THIS COPY OF ASPEN PLUS LICENSED TO INDIAN INSTITUTE OF TECH        
 
 


Calculations begin                                                              time   6577.89


      UOS BLOCK B1       MODEL: RADFRAC                                           TIME =   6577.89

       Convergence iterations:
         OL   ML   IL     Err/Tol
          1    1    7      46.026    
          2    1    2      1.8979    
          3    1    3     0.17353    

      CHECKING PHASE EQUILIBRIUM RESULTS                                          TIME =   6577.89

      CHECKING PHASE EQUILIBRIUM RESULTS                                          TIME =   6577.89


*** INPUT SPECIFICATION MESSAGES ***

 CHANGES WERE MADE TO BLOCK        B1       02/05/2022   22:45:12:99 
 BLOCK B1 RADFRAC
     PARAM NSTAGE=40 ALGORITHM=STANDARD MAXOL=25 DAMPING=NONE
     COL-CONFIG CONDENSER=TOTAL
     FEEDS FEED 25
     PRODUCTS BOTTOMS 40 L / DISTILLA 1 L
     P-SPEC 1 1. <atm>
     COL-SPECS D:F=0.5 MOLE-RR=15.

 FLOWSHEET    IS GENERATED BECAUSE OF OTHER CHANGES 02/05/2022   22:45:12:99 
 FLOWSHEET
     BLOCK B1 IN=FEED OUT=DISTILLA BOTTOMS

 PDF updated                                                                      TIME =   6612.13
 THIS COPY OF ASPEN PLUS LICENSED TO INDIAN INSTITUTE OF TECH        
 
 


Calculations begin                                                              time   6612.15


      UOS BLOCK B1       MODEL: RADFRAC                                           TIME =   6612.15

       Convergence iterations:
         OL   ML   IL     Err/Tol
          1    1    5      22.631    
          2    1    2      1.2595    
          3    1    3     0.20471    

      CHECKING PHASE EQUILIBRIUM RESULTS                                          TIME =   6612.15

      CHECKING PHASE EQUILIBRIUM RESULTS                                          TIME =   6612.15

 Report Writer entered                                                            Time =   6624.48

 Results generated                                                                Time =   6624.54

 Report Writer entered                                                            Time =   6624.77

 Results generated                                                                Time =   6624.78

RUN SAVED



 *** SUMMARY OF ERRORS ***

                  PHYSICAL
                  PROPERTY  SYSTEM  SIMULATION
 TERMINAL ERRORS      0        0         0
   SEVERE ERRORS      0        0         0
          ERRORS      0        0         0
        WARNINGS      0        0         2

 Report Writer entered                                                            Time =   6635.67

 Results generated                                                                Time =   6635.69

 Report Writer entered                                                            Time =   6635.93

 Results generated                                                                Time =   6635.94

RUN SAVED



 *** SUMMARY OF ERRORS ***

                  PHYSICAL
                  PROPERTY  SYSTEM  SIMULATION
 TERMINAL ERRORS      0        0         0
   SEVERE ERRORS      0        0         0
          ERRORS      0        0         0
        WARNINGS      0        0         2


*** INPUT SPECIFICATION MESSAGES ***

 CHANGES WERE MADE TO BLOCK        B1       02/05/2022   22:45:50:99 
 BLOCK B1 RADFRAC
     PARAM NSTAGE=60 ALGORITHM=STANDARD MAXOL=25 DAMPING=NONE
     COL-CONFIG CONDENSER=TOTAL
     FEEDS FEED 15
     PRODUCTS BOTTOMS 60 L / DISTILLA 1 L
     P-SPEC 1 1. <atm>
     COL-SPECS D:F=0.5 MOLE-RR=15.

 FLOWSHEET    IS GENERATED BECAUSE OF OTHER CHANGES 02/05/2022   22:45:50:99 
 FLOWSHEET
     BLOCK B1 IN=FEED OUT=DISTILLA BOTTOMS

 PDF updated                                                                      TIME =   6650.82
 THIS COPY OF ASPEN PLUS LICENSED TO INDIAN INSTITUTE OF TECH        
 
 


Calculations begin                                                              time   6650.84


      UOS BLOCK B1       MODEL: RADFRAC                                           TIME =   6650.84

       Convergence iterations:
         OL   ML   IL     Err/Tol
          1    1    7      62.006    
          2    1    3      1.9620    
          3    1    3     0.19933    

      CHECKING PHASE EQUILIBRIUM RESULTS                                          TIME =   6650.84

      CHECKING PHASE EQUILIBRIUM RESULTS                                          TIME =   6650.84


*** INPUT SPECIFICATION MESSAGES ***

 CHANGES WERE MADE TO BLOCK        B1       02/05/2022   22:46:07:99 
 BLOCK B1 RADFRAC
     PARAM NSTAGE=65 ALGORITHM=STANDARD MAXOL=25 DAMPING=NONE
     COL-CONFIG CONDENSER=TOTAL
     FEEDS FEED 15
     PRODUCTS BOTTOMS 65 L / DISTILLA 1 L
     P-SPEC 1 1. <atm>
     COL-SPECS D:F=0.5 MOLE-RR=15.

 FLOWSHEET    IS GENERATED BECAUSE OF OTHER CHANGES 02/05/2022   22:46:07:99 
 FLOWSHEET
     BLOCK B1 IN=FEED OUT=DISTILLA BOTTOMS

 PDF updated                                                                      TIME =   6667.24
 THIS COPY OF ASPEN PLUS LICENSED TO INDIAN INSTITUTE OF TECH        
 
 


Calculations begin                                                              time   6667.29


      UOS BLOCK B1       MODEL: RADFRAC                                           TIME =   6667.29

       Convergence iterations:
         OL   ML   IL     Err/Tol
          1    1    6      4.5041    
          2    1    3     0.23700    

      CHECKING PHASE EQUILIBRIUM RESULTS                                          TIME =   6667.30

      CHECKING PHASE EQUILIBRIUM RESULTS                                          TIME =   6667.30


*** INPUT SPECIFICATION MESSAGES ***

 CHANGES WERE MADE TO BLOCK        B1       02/05/2022   22:59:36:99 
 BLOCK B1 RADFRAC
     PARAM NSTAGE=75 ALGORITHM=STANDARD MAXOL=25 DAMPING=NONE
     COL-CONFIG CONDENSER=TOTAL
     FEEDS FEED 15
     PRODUCTS BOTTOMS 75 L / DISTILLA 1 L
     P-SPEC 1 1. <atm>
     COL-SPECS D:F=0.5 MOLE-RR=15.

 FLOWSHEET    IS GENERATED BECAUSE OF OTHER CHANGES 02/05/2022   22:59:36:99 
 FLOWSHEET
     BLOCK B1 IN=FEED OUT=DISTILLA BOTTOMS

 PDF updated                                                                      TIME =   7476.71
 THIS COPY OF ASPEN PLUS LICENSED TO INDIAN INSTITUTE OF TECH        
 
 


Calculations begin                                                              time   7476.76


      UOS BLOCK B1       MODEL: RADFRAC                                           TIME =   7476.76

       Convergence iterations:
         OL   ML   IL     Err/Tol
          1    1    7      7.8041    
          2    1    3     0.37324    

      CHECKING PHASE EQUILIBRIUM RESULTS                                          TIME =   7476.78

      CHECKING PHASE EQUILIBRIUM RESULTS                                          TIME =   7476.78


*** INPUT SPECIFICATION MESSAGES ***

 CHANGES WERE MADE TO BLOCK        B1       02/05/2022   23:01:41:99 
 BLOCK B1 RADFRAC
     PARAM NSTAGE=40 ALGORITHM=STANDARD MAXOL=25 DAMPING=NONE
     COL-CONFIG CONDENSER=TOTAL
     FEEDS FEED 25
     PRODUCTS BOTTOMS 40 L / DISTILLA 1 L
     P-SPEC 1 1. <atm>
     COL-SPECS D:F=0.5 MOLE-RR=15.

 FLOWSHEET    IS GENERATED BECAUSE OF OTHER CHANGES 02/05/2022   23:01:41:99 
 FLOWSHEET
     BLOCK B1 IN=FEED OUT=DISTILLA BOTTOMS

 PDF updated                                                                      TIME =   7601.61
 THIS COPY OF ASPEN PLUS LICENSED TO INDIAN INSTITUTE OF TECH        
 
 


Calculations begin                                                              time   7601.64


      UOS BLOCK B1       MODEL: RADFRAC                                           TIME =   7601.64

       Convergence iterations:
         OL   ML   IL     Err/Tol
          1    1    5      30.541    
          2    1    2      1.6005    
          3    1    3     0.30804    

      CHECKING PHASE EQUILIBRIUM RESULTS                                          TIME =   7601.64

      CHECKING PHASE EQUILIBRIUM RESULTS                                          TIME =   7601.64

RUN SAVED



 *** SUMMARY OF ERRORS ***

                  PHYSICAL
                  PROPERTY  SYSTEM  SIMULATION
 TERMINAL ERRORS      0        0         0
   SEVERE ERRORS      0        0         0
          ERRORS      0        0         0
        WARNINGS      0        0         2

 *** CALCULATION TRACE ***




*** INPUT SPECIFICATION MESSAGES ***

 BLOCK        B1       IS GENERATED BECAUSE OF OTHER CHANGES 02/06/2022   12:37:17:99 
 BLOCK B1 RADFRAC
     PARAM NSTAGE=40 ALGORITHM=STANDARD MAXOL=25 DAMPING=NONE
     COL-CONFIG CONDENSER=TOTAL
     FEEDS FEED 25
     PRODUCTS BOTTOMS 40 L / DISTILLA 1 L
     P-SPEC 1 1. <atm>
     COL-SPECS D:F=0.5 MOLE-RR=15.

 SENSITIVITY  S-1      IS NEW 02/06/2022   12:37:17:99 
 SENSITIVITY S-1
     DEFINE REBOILER BLOCK-VAR BLOCK=B1 VARIABLE=REB-DUTY  &
         SENTENCE=RESULTS UOM="cal/sec"
     TABULATE 1 "REBOILER"
     VARY BLOCK-VAR BLOCK=B1 VARIABLE=NSTAGE SENTENCE=PARAM
     RANGE OPT-LIST=RANGE LOWER="15" UPPER="50" NPOINT="36"

 PDF updated                                                                      TIME =      0.50
 THIS COPY OF ASPEN PLUS LICENSED TO INDIAN INSTITUTE OF TECH        
 
 SENSITIVITY BLOCK: S-1 WILL BE INTERPRETED 
 
 *** FLOWSHEET ANALYSIS MESSAGES ***

      COMPUTATION ORDER FOR THE FLOWSHEET IS:
      S-1 B1 
      (RETURN S-1) 

Calculations begin                                                              time      1.25


 SIMULATION CALCULATIONS BEGIN                                                    TIME =      1.25

 SENSITIVITY BLOCK S-1      ROW     1 EVALUATION BEGINS                           TIME =      1.25
      VARY VARIABLES:   15.000    

      UOS BLOCK B1       MODEL: RADFRAC                                           TIME =      1.29

  *** SEVERE ERROR WHILE EXECUTING UNIT OPERATIONS BLOCK: "B1" (MODEL:          
      "RADFRAC")                                               (UDL3II.1450)    
      FEED STAGE NUMBER HAS BEEN RESET TO (25) WHICH IS GREATER                 
      THAN THE TOTAL NUMBER OF STAGES (15). BLOCK BYPASSED.                     

 SENSITIVITY BLOCK S-1      ROW     2 EVALUATION BEGINS                           TIME =      1.34
      VARY VARIABLES:   16.000    

      UOS BLOCK B1       MODEL: RADFRAC                                           TIME =      1.35

  *** SEVERE ERROR WHILE EXECUTING UNIT OPERATIONS BLOCK: "B1" (MODEL:          
      "RADFRAC")                                               (UDL3II.1450)    
      FEED STAGE NUMBER HAS BEEN RESET TO (25) WHICH IS GREATER                 
      THAN THE TOTAL NUMBER OF STAGES (16). BLOCK BYPASSED.                     

 SENSITIVITY BLOCK S-1      ROW     3 EVALUATION BEGINS                           TIME =      1.35
      VARY VARIABLES:   17.000    

      UOS BLOCK B1       MODEL: RADFRAC                                           TIME =      1.35

  *** SEVERE ERROR WHILE EXECUTING UNIT OPERATIONS BLOCK: "B1" (MODEL:          
      "RADFRAC")                                               (UDL3II.1450)    
      FEED STAGE NUMBER HAS BEEN RESET TO (25) WHICH IS GREATER                 
      THAN THE TOTAL NUMBER OF STAGES (17). BLOCK BYPASSED.                     

 SENSITIVITY BLOCK S-1      ROW     4 EVALUATION BEGINS                           TIME =      1.35
      VARY VARIABLES:   18.000    

      UOS BLOCK B1       MODEL: RADFRAC                                           TIME =      1.36

  *** SEVERE ERROR WHILE EXECUTING UNIT OPERATIONS BLOCK: "B1" (MODEL:          
      "RADFRAC")                                               (UDL3II.1450)    
      FEED STAGE NUMBER HAS BEEN RESET TO (25) WHICH IS GREATER                 
      THAN THE TOTAL NUMBER OF STAGES (18). BLOCK BYPASSED.                     

 SENSITIVITY BLOCK S-1      ROW     5 EVALUATION BEGINS                           TIME =      1.36
      VARY VARIABLES:   19.000    

      UOS BLOCK B1       MODEL: RADFRAC                                           TIME =      1.36

  *** SEVERE ERROR WHILE EXECUTING UNIT OPERATIONS BLOCK: "B1" (MODEL:          
      "RADFRAC")                                               (UDL3II.1450)    
      FEED STAGE NUMBER HAS BEEN RESET TO (25) WHICH IS GREATER                 
      THAN THE TOTAL NUMBER OF STAGES (19). BLOCK BYPASSED.                     

 SENSITIVITY BLOCK S-1      ROW     6 EVALUATION BEGINS                           TIME =      1.36
      VARY VARIABLES:   20.000    

      UOS BLOCK B1       MODEL: RADFRAC                                           TIME =      1.36

  *** SEVERE ERROR WHILE EXECUTING UNIT OPERATIONS BLOCK: "B1" (MODEL:          
      "RADFRAC")                                               (UDL3II.1450)    
      FEED STAGE NUMBER HAS BEEN RESET TO (25) WHICH IS GREATER                 
      THAN THE TOTAL NUMBER OF STAGES (20). BLOCK BYPASSED.                     

 SENSITIVITY BLOCK S-1      ROW     7 EVALUATION BEGINS                           TIME =      1.36
      VARY VARIABLES:   21.000    

      UOS BLOCK B1       MODEL: RADFRAC                                           TIME =      1.36

  *** SEVERE ERROR WHILE EXECUTING UNIT OPERATIONS BLOCK: "B1" (MODEL:          
      "RADFRAC")                                               (UDL3II.1450)    
      FEED STAGE NUMBER HAS BEEN RESET TO (25) WHICH IS GREATER                 
      THAN THE TOTAL NUMBER OF STAGES (21). BLOCK BYPASSED.                     

 SENSITIVITY BLOCK S-1      ROW     8 EVALUATION BEGINS                           TIME =      1.36
      VARY VARIABLES:   22.000    

      UOS BLOCK B1       MODEL: RADFRAC                                           TIME =      1.36

  *** SEVERE ERROR WHILE EXECUTING UNIT OPERATIONS BLOCK: "B1" (MODEL:          
      "RADFRAC")                                               (UDL3II.1450)    
      FEED STAGE NUMBER HAS BEEN RESET TO (25) WHICH IS GREATER                 
      THAN THE TOTAL NUMBER OF STAGES (22). BLOCK BYPASSED.                     

 SENSITIVITY BLOCK S-1      ROW     9 EVALUATION BEGINS                           TIME =      1.36
      VARY VARIABLES:   23.000    

      UOS BLOCK B1       MODEL: RADFRAC                                           TIME =      1.36

  *** SEVERE ERROR WHILE EXECUTING UNIT OPERATIONS BLOCK: "B1" (MODEL:          
      "RADFRAC")                                               (UDL3II.1450)    
      FEED STAGE NUMBER HAS BEEN RESET TO (25) WHICH IS GREATER                 
      THAN THE TOTAL NUMBER OF STAGES (23). BLOCK BYPASSED.                     

 SENSITIVITY BLOCK S-1      ROW    10 EVALUATION BEGINS                           TIME =      1.36
      VARY VARIABLES:   24.000    

      UOS BLOCK B1       MODEL: RADFRAC                                           TIME =      1.36

       Convergence iterations:
         OL   ML   IL     Err/Tol
          1    1    5      24.527    
          2    1    2     0.66092    

 SENSITIVITY BLOCK S-1      ROW    11 EVALUATION BEGINS                           TIME =      1.55
      VARY VARIABLES:   25.000    

      UOS BLOCK B1       MODEL: RADFRAC                                           TIME =      1.55

       Convergence iterations:
         OL   ML   IL     Err/Tol
          1    1    3     0.85769E-01

 SENSITIVITY BLOCK S-1      ROW    12 EVALUATION BEGINS                           TIME =      1.56
      VARY VARIABLES:   26.000    

      UOS BLOCK B1       MODEL: RADFRAC                                           TIME =      1.56

       Convergence iterations:
         OL   ML   IL     Err/Tol
          1    1    5      5.7805    
          2    1    2     0.16370    

 SENSITIVITY BLOCK S-1      ROW    13 EVALUATION BEGINS                           TIME =      1.57
      VARY VARIABLES:   27.000    

      UOS BLOCK B1       MODEL: RADFRAC                                           TIME =      1.57

       Convergence iterations:
         OL   ML   IL     Err/Tol
          1    1    5      5.2908    
          2    1    2     0.18418    

 SENSITIVITY BLOCK S-1      ROW    14 EVALUATION BEGINS                           TIME =      1.57
      VARY VARIABLES:   28.000    

      UOS BLOCK B1       MODEL: RADFRAC                                           TIME =      1.57

       Convergence iterations:
         OL   ML   IL     Err/Tol
          1    1    5      4.8544    
          2    1    3     0.20543    

 SENSITIVITY BLOCK S-1      ROW    15 EVALUATION BEGINS                           TIME =      1.58
      VARY VARIABLES:   29.000    

      UOS BLOCK B1       MODEL: RADFRAC                                           TIME =      1.58

       Convergence iterations:
         OL   ML   IL     Err/Tol
          1    1    5      4.4656    
          2    1    3     0.22405    

 SENSITIVITY BLOCK S-1      ROW    16 EVALUATION BEGINS                           TIME =      1.59
      VARY VARIABLES:   30.000    

      UOS BLOCK B1       MODEL: RADFRAC                                           TIME =      1.59

       Convergence iterations:
         OL   ML   IL     Err/Tol
          1    1    5      4.1205    
          2    1    3     0.23714    

 SENSITIVITY BLOCK S-1      ROW    17 EVALUATION BEGINS                           TIME =      1.59
      VARY VARIABLES:   31.000    

      UOS BLOCK B1       MODEL: RADFRAC                                           TIME =      1.59

       Convergence iterations:
         OL   ML   IL     Err/Tol
          1    1    5      3.7843    
          2    1    3     0.23602    

 SENSITIVITY BLOCK S-1      ROW    18 EVALUATION BEGINS                           TIME =      1.60
      VARY VARIABLES:   32.000    

      UOS BLOCK B1       MODEL: RADFRAC                                           TIME =      1.60

       Convergence iterations:
         OL   ML   IL     Err/Tol
          1    1    5      3.4715    
          2    1    3     0.23060    

 SENSITIVITY BLOCK S-1      ROW    19 EVALUATION BEGINS                           TIME =      1.60
      VARY VARIABLES:   33.000    

      UOS BLOCK B1       MODEL: RADFRAC                                           TIME =      1.60

       Convergence iterations:
         OL   ML   IL     Err/Tol
          1    1    5      3.1882    
          2    1    3     0.21202    

 SENSITIVITY BLOCK S-1      ROW    20 EVALUATION BEGINS                           TIME =      1.61
      VARY VARIABLES:   34.000    

      UOS BLOCK B1       MODEL: RADFRAC                                           TIME =      1.61

       Convergence iterations:
         OL   ML   IL     Err/Tol
          1    1    5      2.9234    
          2    1    3     0.19534    

 SENSITIVITY BLOCK S-1      ROW    21 EVALUATION BEGINS                           TIME =      1.61
      VARY VARIABLES:   35.000    

      UOS BLOCK B1       MODEL: RADFRAC                                           TIME =      1.61

       Convergence iterations:
         OL   ML   IL     Err/Tol
          1    1    5      2.6969    
          2    1    3     0.17078    

 SENSITIVITY BLOCK S-1      ROW    22 EVALUATION BEGINS                           TIME =      1.61
      VARY VARIABLES:   36.000    

      UOS BLOCK B1       MODEL: RADFRAC                                           TIME =      1.61

       Convergence iterations:
         OL   ML   IL     Err/Tol
          1    1    5      2.4837    
          2    1    3     0.15363    

 SENSITIVITY BLOCK S-1      ROW    23 EVALUATION BEGINS                           TIME =      1.62
      VARY VARIABLES:   37.000    

      UOS BLOCK B1       MODEL: RADFRAC                                           TIME =      1.62

       Convergence iterations:
         OL   ML   IL     Err/Tol
          1    1    4      2.3105    
          2    1    3     0.13170    

 SENSITIVITY BLOCK S-1      ROW    24 EVALUATION BEGINS                           TIME =      1.62
      VARY VARIABLES:   38.000    

      UOS BLOCK B1       MODEL: RADFRAC                                           TIME =      1.62

       Convergence iterations:
         OL   ML   IL     Err/Tol
          1    1    4      2.1423    
          2    1    3     0.11967    

 SENSITIVITY BLOCK S-1      ROW    25 EVALUATION BEGINS                           TIME =      1.62
      VARY VARIABLES:   39.000    

      UOS BLOCK B1       MODEL: RADFRAC                                           TIME =      1.62

       Convergence iterations:
         OL   ML   IL     Err/Tol
          1    1    4      2.0125    
          2    1    3     0.10421    

 SENSITIVITY BLOCK S-1      ROW    26 EVALUATION BEGINS                           TIME =      1.62
      VARY VARIABLES:   40.000    

      UOS BLOCK B1       MODEL: RADFRAC                                           TIME =      1.62

       Convergence iterations:
         OL   ML   IL     Err/Tol
          1    1    4      1.8788    
          2    1    3     0.97637E-01

 SENSITIVITY BLOCK S-1      ROW    27 EVALUATION BEGINS                           TIME =      1.63
      VARY VARIABLES:   41.000    

      UOS BLOCK B1       MODEL: RADFRAC                                           TIME =      1.63

  *** SEVERE ERROR WHILE EXECUTING UNIT OPERATIONS BLOCK: "B1" (MODEL:          
      "RADFRAC")                                               (UDL3II.7040)    
      NUMBER OF STAGES HAS BEEN RESET TO (41), WHICH IS GREATER                 
      THAN THE NUMBER OF STAGES SPECIFIED (40). INCREASING THE                  
      NUMBER OF STAGES BEYOND THE VALUE SPECIFIED IN THE BLOCK                  
      IS NOT ALLOWED.  BLOCK BYPASSED.                                          

 SENSITIVITY BLOCK S-1      ROW    28 EVALUATION BEGINS                           TIME =      1.63
      VARY VARIABLES:   42.000    

      UOS BLOCK B1       MODEL: RADFRAC                                           TIME =      1.63

  *** SEVERE ERROR WHILE EXECUTING UNIT OPERATIONS BLOCK: "B1" (MODEL:          
      "RADFRAC")                                               (UDL3II.7040)    
      NUMBER OF STAGES HAS BEEN RESET TO (42), WHICH IS GREATER                 
      THAN THE NUMBER OF STAGES SPECIFIED (40). INCREASING THE                  
      NUMBER OF STAGES BEYOND THE VALUE SPECIFIED IN THE BLOCK                  
      IS NOT ALLOWED.  BLOCK BYPASSED.                                          

[...]


Calculations begin                                                              time   8382.69


 SENSITIVITY BLOCK S-1      ROW     1 EVALUATION BEGINS                           TIME =   8382.69
      VARY VARIABLES:  0.10000    

      UOS BLOCK B1       MODEL: RADFRAC                                           TIME =   8382.69

       Convergence iterations:
         OL   ML   IL     Err/Tol
          1    1   10      66.117    
          2    1    3     0.79724    

 SENSITIVITY BLOCK S-1      ROW     2 EVALUATION BEGINS                           TIME =   8382.72
      VARY VARIABLES:  0.11667    

      UOS BLOCK B1       MODEL: RADFRAC                                           TIME =   8382.72

       Convergence iterations:
         OL   ML   IL     Err/Tol
          1    1    2     0.81038E-01

 SENSITIVITY BLOCK S-1      ROW     3 EVALUATION BEGINS                           TIME =   8382.74
      VARY VARIABLES:  0.13333    

      UOS BLOCK B1       MODEL: RADFRAC                                           TIME =   8382.74

       Convergence iterations:
         OL   ML   IL     Err/Tol
          1    1    2     0.88946E-01

 SENSITIVITY BLOCK S-1      ROW     4 EVALUATION BEGINS                           TIME =   8382.74
      VARY VARIABLES:  0.15000    

      UOS BLOCK B1       MODEL: RADFRAC                                           TIME =   8382.74

       Convergence iterations:
         OL   ML   IL     Err/Tol
          1    1    2     0.89392E-01

 SENSITIVITY BLOCK S-1      ROW     5 EVALUATION BEGINS                           TIME =   8382.75
      VARY VARIABLES:  0.16667    

      UOS BLOCK B1       MODEL: RADFRAC                                           TIME =   8382.75

       Convergence iterations:
         OL   ML   IL     Err/Tol
          1    1    2     0.89832E-01

 SENSITIVITY BLOCK S-1      ROW     6 EVALUATION BEGINS                           TIME =   8382.75
      VARY VARIABLES:  0.18333    

      UOS BLOCK B1       MODEL: RADFRAC                                           TIME =   8382.75

       Convergence iterations:
         OL   ML   IL     Err/Tol
          1    1    2     0.90278E-01

 SENSITIVITY BLOCK S-1      ROW     7 EVALUATION BEGINS                           TIME =   8382.75
      VARY VARIABLES:  0.20000    

      UOS BLOCK B1       MODEL: RADFRAC                                           TIME =   8382.75

       Convergence iterations:
         OL   ML   IL     Err/Tol
          1    1    2     0.90730E-01

 SENSITIVITY BLOCK S-1      ROW     8 EVALUATION BEGINS                           TIME =   8382.75
      VARY VARIABLES:  0.21667    

      UOS BLOCK B1       MODEL: RADFRAC                                           TIME =   8382.75

       Convergence iterations:
         OL   ML   IL     Err/Tol
          1    1    2     0.91186E-01

 SENSITIVITY BLOCK S-1      ROW     9 EVALUATION BEGINS                           TIME =   8382.75
      VARY VARIABLES:  0.23333    

      UOS BLOCK B1       MODEL: RADFRAC                                           TIME =   8382.75

       Convergence iterations:
         OL   ML   IL     Err/Tol
          1    1    2     0.91646E-01

 SENSITIVITY BLOCK S-1      ROW    10 EVALUATION BEGINS                           TIME =   8382.75
      VARY VARIABLES:  0.25000    

      UOS BLOCK B1       MODEL: RADFRAC                                           TIME =   8382.75

       Convergence iterations:
         OL   ML   IL     Err/Tol
          1    1    2     0.92109E-01

 SENSITIVITY BLOCK S-1      ROW    11 EVALUATION BEGINS                           TIME =   8382.75
      VARY VARIABLES:  0.26667    

      UOS BLOCK B1       MODEL: RADFRAC                                           TIME =   8382.75

       Convergence iterations:
         OL   ML   IL     Err/Tol
          1    1    2     0.92576E-01

 SENSITIVITY BLOCK S-1      ROW    12 EVALUATION BEGINS                           TIME =   8382.75
      VARY VARIABLES:  0.28333    

      UOS BLOCK B1       MODEL: RADFRAC                                           TIME =   8382.75

       Convergence iterations:
         OL   ML   IL     Err/Tol
          1    1    2     0.93044E-01

 SENSITIVITY BLOCK S-1      ROW    13 EVALUATION BEGINS                           TIME =   8382.76
      VARY VARIABLES:  0.30000    

      UOS BLOCK B1       MODEL: RADFRAC                                           TIME =   8382.76

       Convergence iterations:
         OL   ML   IL     Err/Tol
          1    1    2     0.93514E-01

 SENSITIVITY BLOCK S-1      ROW    14 EVALUATION BEGINS                           TIME =   8382.76
      VARY VARIABLES:  0.31667    

      UOS BLOCK B1       MODEL: RADFRAC                                           TIME =   8382.76

       Convergence iterations:
         OL   ML   IL     Err/Tol
          1    1    2     0.93986E-01

 SENSITIVITY BLOCK S-1      ROW    15 EVALUATION BEGINS                           TIME =   8382.76
      VARY VARIABLES:  0.33333    

      UOS BLOCK B1       MODEL: RADFRAC                                           TIME =   8382.76

       Convergence iterations:
         OL   ML   IL     Err/Tol
          1    1    2     0.94459E-01

 SENSITIVITY BLOCK S-1      ROW    16 EVALUATION BEGINS                           TIME =   8382.77
      VARY VARIABLES:  0.35000    

      UOS BLOCK B1       MODEL: RADFRAC                                           TIME =   8382.77

       Convergence iterations:
         OL   ML   IL     Err/Tol
          1    1    2     0.94933E-01

 SENSITIVITY BLOCK S-1      ROW    17 EVALUATION BEGINS                           TIME =   8382.77
      VARY VARIABLES:  0.36667    

      UOS BLOCK B1       MODEL: RADFRAC                                           TIME =   8382.77

       Convergence iterations:
         OL   ML   IL     Err/Tol
          1    1    2     0.95407E-01

 SENSITIVITY BLOCK S-1      ROW    18 EVALUATION BEGINS                           TIME =   8382.77
      VARY VARIABLES:  0.38333    

      UOS BLOCK B1       MODEL: RADFRAC                                           TIME =   8382.77

       Convergence iterations:
         OL   ML   IL     Err/Tol
          1    1    2     0.95882E-01

 SENSITIVITY BLOCK S-1      ROW    19 EVALUATION BEGINS                           TIME =   8382.77
      VARY VARIABLES:  0.40000    

      UOS BLOCK B1       MODEL: RADFRAC                                           TIME =   8382.77

       Convergence iterations:
         OL   ML   IL     Err/Tol
          1    1    2     0.96356E-01

 SENSITIVITY BLOCK S-1      ROW    20 EVALUATION BEGINS                           TIME =   8382.77
      VARY VARIABLES:  0.41667    

      UOS BLOCK B1       MODEL: RADFRAC                                           TIME =   8382.77

       Convergence iterations:
         OL   ML   IL     Err/Tol
          1    1    2     0.96830E-01

 SENSITIVITY BLOCK S-1      ROW    21 EVALUATION BEGINS                           TIME =   8382.77
      VARY VARIABLES:  0.43333    

      UOS BLOCK B1       MODEL: RADFRAC                                           TIME =   8382.77

       Convergence iterations:
         OL   ML   IL     Err/Tol
          1    1    2     0.97303E-01

 SENSITIVITY BLOCK S-1      ROW    22 EVALUATION BEGINS                           TIME =   8382.77
      VARY VARIABLES:  0.45000    

      UOS BLOCK B1       MODEL: RADFRAC                                           TIME =   8382.77

       Convergence iterations:
         OL   ML   IL     Err/Tol
          1    1    2     0.97776E-01

 SENSITIVITY BLOCK S-1      ROW    23 EVALUATION BEGINS                           TIME =   8382.78
      VARY VARIABLES:  0.46667    

      UOS BLOCK B1       MODEL: RADFRAC                                           TIME =   8382.78

       Convergence iterations:
         OL   ML   IL     Err/Tol
          1    1    2     0.98248E-01

 SENSITIVITY BLOCK S-1      ROW    24 EVALUATION BEGINS                           TIME =   8382.78
      VARY VARIABLES:  0.48333    

      UOS BLOCK B1       MODEL: RADFRAC                                           TIME =   8382.78

       Convergence iterations:
         OL   ML   IL     Err/Tol
          1    1    2     0.98719E-01

 SENSITIVITY BLOCK S-1      ROW    25 EVALUATION BEGINS                           TIME =   8382.78
      VARY VARIABLES:  0.50000    

      UOS BLOCK B1       MODEL: RADFRAC                                           TIME =   8382.78

       Convergence iterations:
         OL   ML   IL     Err/Tol
          1    1    2     0.99188E-01

 SENSITIVITY BLOCK S-1      ROW    26 (BASE CASE) EVALUATION BEGINS               TIME =   8382.78

    SET IFINAL TO   1
      VARY VARIABLES:   15.000    

      UOS BLOCK B1       MODEL: RADFRAC                                           TIME =   8382.78

       Convergence iterations:
         OL   ML   IL     Err/Tol
          1    1    4      37.464    
          2    1    3      1.0640    
          3    1    3     0.64176E-01

    SET IFINAL TO   0

      CHECKING PHASE EQUILIBRIUM RESULTS                                          TIME =   8382.78

      CHECKING PHASE EQUILIBRIUM RESULTS                                          TIME =   8382.78


*** INPUT SPECIFICATION MESSAGES ***

 CHANGES WERE MADE TO SENSITIVITY  S-1      02/06/2022   14:58:14:99 
 SENSITIVITY S-1
     DEFINE ISOBUTAN MOLE-FLOW STREAM=DISTILLA SUBSTREAM=MIXED  &
         COMPONENT=ISOBU-01 UOM="lbmol/hr"
     TABULATE 1 "ISOBUTAN"
     VARY BLOCK-VAR BLOCK=B1 VARIABLE=MOLE-RR SENTENCE=COL-SPECS
     RANGE OPT-LIST=RANGE LOWER="0.1" UPPER="15" NPOINT="25"

 PDF updated                                                                      TIME =   8457.33
 THIS COPY OF ASPEN PLUS LICENSED TO INDIAN INSTITUTE OF TECH        

      CHECKING PHASE EQUILIBRIUM RESULTS                                          TIME =   8457.34
 *** FLOWSHEET ANALYSIS MESSAGES ***

      COMPUTATION ORDER FOR THE FLOWSHEET IS:
      S-1 B1 
      (RETURN S-1) 


Calculations begin                                                              time   8457.35


 SENSITIVITY BLOCK S-1      ROW     1 EVALUATION BEGINS                           TIME =   8457.35
      VARY VARIABLES:  0.10000    

      UOS BLOCK B1       MODEL: RADFRAC                                           TIME =   8457.35

       Convergence iterations:
         OL   ML   IL     Err/Tol
          1    1   10      66.118    
          2    1    3     0.79726    

 SENSITIVITY BLOCK S-1      ROW     2 EVALUATION BEGINS                           TIME =   8457.35
      VARY VARIABLES:  0.72083    

      UOS BLOCK B1       MODEL: RADFRAC                                           TIME =   8457.35

       Convergence iterations:
         OL   ML   IL     Err/Tol
          1    1    4      3.5770    
          2    1    3     0.14275E-01

 SENSITIVITY BLOCK S-1      ROW     3 EVALUATION BEGINS                           TIME =   8457.36
      VARY VARIABLES:   1.3417    

      UOS BLOCK B1       MODEL: RADFRAC                                           TIME =   8457.36

       Convergence iterations:
         OL   ML   IL     Err/Tol
          1    1    4      4.0886    
          2    1    3     0.29884E-01

 SENSITIVITY BLOCK S-1      ROW     4 EVALUATION BEGINS                           TIME =   8457.36
      VARY VARIABLES:   1.9625    

      UOS BLOCK B1       MODEL: RADFRAC                                           TIME =   8457.36

       Convergence iterations:
         OL   ML   IL     Err/Tol
          1    1    4      4.1839    
          2    1    3     0.51321E-01

 SENSITIVITY BLOCK S-1      ROW     5 EVALUATION BEGINS                           TIME =   8457.36
      VARY VARIABLES:   2.5833    

      UOS BLOCK B1       MODEL: RADFRAC                                           TIME =   8457.36

       Convergence iterations:
         OL   ML   IL     Err/Tol
          1    1    4      3.8464    
          2    1    3     0.74773E-01

 SENSITIVITY BLOCK S-1      ROW     6 EVALUATION BEGINS                           TIME =   8457.36
      VARY VARIABLES:   3.2042    

      UOS BLOCK B1       MODEL: RADFRAC                                           TIME =   8457.36

       Convergence iterations:
         OL   ML   IL     Err/Tol
          1    1    4      3.3600    
          2    1    3     0.87908E-01

 SENSITIVITY BLOCK S-1      ROW     7 EVALUATION BEGINS                           TIME =   8457.37
      VARY VARIABLES:   3.8250    

      UOS BLOCK B1       MODEL: RADFRAC                                           TIME =   8457.37

       Convergence iterations:
         OL   ML   IL     Err/Tol
          1    1    4      2.9238    
          2    1    3     0.84296E-01

 SENSITIVITY BLOCK S-1      ROW     8 EVALUATION BEGINS                           TIME =   8457.37
      VARY VARIABLES:   4.4458    

      UOS BLOCK B1       MODEL: RADFRAC                                           TIME =   8457.37

       Convergence iterations:
         OL   ML   IL     Err/Tol
          1    1    4      2.5193    
          2    1    3     0.75828E-01

 SENSITIVITY BLOCK S-1      ROW     9 EVALUATION BEGINS                           TIME =   8457.37
      VARY VARIABLES:   5.0667    

      UOS BLOCK B1       MODEL: RADFRAC                                           TIME =   8457.37

       Convergence iterations:
         OL   ML   IL     Err/Tol
          1    1    4      2.1221    
          2    1    3     0.71753E-01

 SENSITIVITY BLOCK S-1      ROW    10 EVALUATION BEGINS                           TIME =   8457.37
      VARY VARIABLES:   5.6875    

      UOS BLOCK B1       MODEL: RADFRAC                                           TIME =   8457.37

       Convergence iterations:
         OL   ML   IL     Err/Tol
          1    1    4      1.7607    
          2    1    3     0.67820E-01

 SENSITIVITY BLOCK S-1      ROW    11 EVALUATION BEGINS                           TIME =   8457.38
      VARY VARIABLES:   6.3083    

      UOS BLOCK B1       MODEL: RADFRAC                                           TIME =   8457.38

       Convergence iterations:
         OL   ML   IL     Err/Tol
          1    1    4      1.4580    
          2    1    3     0.61665E-01

 SENSITIVITY BLOCK S-1      ROW    12 EVALUATION BEGINS                           TIME =   8457.38
      VARY VARIABLES:   6.9292    

      UOS BLOCK B1       MODEL: RADFRAC                                           TIME =   8457.38

       Convergence iterations:
         OL   ML   IL     Err/Tol
          1    1    4      1.2156    
          2    1    3     0.54270E-01

 SENSITIVITY BLOCK S-1      ROW    13 EVALUATION BEGINS                           TIME =   8457.38
      VARY VARIABLES:   7.5500    

      UOS BLOCK B1       MODEL: RADFRAC                                           TIME =   8457.38

       Convergence iterations:
         OL   ML   IL     Err/Tol
          1    1    4      1.0244    
          2    1    3     0.46893E-01

 SENSITIVITY BLOCK S-1      ROW    14 EVALUATION BEGINS                           TIME =   8457.38
      VARY VARIABLES:   8.1708    

      UOS BLOCK B1       MODEL: RADFRAC                                           TIME =   8457.38

       Convergence iterations:
         OL   ML   IL     Err/Tol
          1    1    4     0.87330    

 SENSITIVITY BLOCK S-1      ROW    15 EVALUATION BEGINS                           TIME =   8457.38
      VARY VARIABLES:   8.7917    

      UOS BLOCK B1       MODEL: RADFRAC                                           TIME =   8457.38

       Convergence iterations:
         OL   ML   IL     Err/Tol
          1    1    4     0.74200    

 SENSITIVITY BLOCK S-1      ROW    16 EVALUATION BEGINS                           TIME =   8457.39
      VARY VARIABLES:   9.4125    

      UOS BLOCK B1       MODEL: RADFRAC                                           TIME =   8457.39

       Convergence iterations:
         OL   ML   IL     Err/Tol
          1    1    3     0.64590    

 SENSITIVITY BLOCK S-1      ROW    17 EVALUATION BEGINS                           TIME =   8457.39
      VARY VARIABLES:   10.033    

      UOS BLOCK B1       MODEL: RADFRAC                                           TIME =   8457.39

       Convergence iterations:
         OL   ML   IL     Err/Tol
          1    1    3     0.56751    

 SENSITIVITY BLOCK S-1      ROW    18 EVALUATION BEGINS                           TIME =   8457.39
      VARY VARIABLES:   10.654    

      UOS BLOCK B1       MODEL: RADFRAC                                           TIME =   8457.39

       Convergence iterations:
         OL   ML   IL     Err/Tol
          1    1    3     0.50250    

 SENSITIVITY BLOCK S-1      ROW    19 EVALUATION BEGINS                           TIME =   8457.39
      VARY VARIABLES:   11.275    

      UOS BLOCK B1       MODEL: RADFRAC                                           TIME =   8457.39

       Convergence iterations:
         OL   ML   IL     Err/Tol
          1    1    3     0.44816    

 SENSITIVITY BLOCK S-1      ROW    20 EVALUATION BEGINS                           TIME =   8457.39
      VARY VARIABLES:   11.896    

      UOS BLOCK B1       MODEL: RADFRAC                                           TIME =   8457.39

       Convergence iterations:
         OL   ML   IL     Err/Tol
          1    1    3     0.40227    

 SENSITIVITY BLOCK S-1      ROW    21 EVALUATION BEGINS                           TIME =   8457.39
      VARY VARIABLES:   12.517    

      UOS BLOCK B1       MODEL: RADFRAC                                           TIME =   8457.39

       Convergence iterations:
         OL   ML   IL     Err/Tol
          1    1    3     0.36314    

 SENSITIVITY BLOCK S-1      ROW    22 EVALUATION BEGINS                           TIME =   8457.40
      VARY VARIABLES:   13.138    

      UOS BLOCK B1       MODEL: RADFRAC                                           TIME =   8457.40

       Convergence iterations:
         OL   ML   IL     Err/Tol
          1    1    3     0.32949    

 SENSITIVITY BLOCK S-1      ROW    23 EVALUATION BEGINS                           TIME =   8457.40
      VARY VARIABLES:   13.758    

      UOS BLOCK B1       MODEL: RADFRAC                                           TIME =   8457.40

       Convergence iterations:
         OL   ML   IL     Err/Tol
          1    1    3     0.30035    

 SENSITIVITY BLOCK S-1      ROW    24 EVALUATION BEGINS                           TIME =   8457.40
      VARY VARIABLES:   14.379    

      UOS BLOCK B1       MODEL: RADFRAC                                           TIME =   8457.40

       Convergence iterations:
         OL   ML   IL     Err/Tol
          1    1    3     0.27493    

 SENSITIVITY BLOCK S-1      ROW    25 EVALUATION BEGINS                           TIME =   8457.40
      VARY VARIABLES:   15.000    

      UOS BLOCK B1       MODEL: RADFRAC                                           TIME =   8457.40

       Convergence iterations:
         OL   ML   IL     Err/Tol
          1    1    3     0.25262    

 SENSITIVITY BLOCK S-1      ROW    26 (BASE CASE) EVALUATION BEGINS               TIME =   8457.40

    SET IFINAL TO   1
      VARY VARIABLES:   15.000    

      UOS BLOCK B1       MODEL: RADFRAC                                           TIME =   8457.40

       Convergence iterations:
         OL   ML   IL     Err/Tol
          1    1    1     0.38233E-02

    SET IFINAL TO   0

      CHECKING PHASE EQUILIBRIUM RESULTS                                          TIME =   8457.41

      CHECKING PHASE EQUILIBRIUM RESULTS                                          TIME =   8457.41

RUN SAVED



 *** SUMMARY OF ERRORS ***

                  PHYSICAL
                  PROPERTY  SYSTEM  SIMULATION
 TERMINAL ERRORS      0        0         0
   SEVERE ERRORS      0        0        96
          ERRORS      0        0         8
        WARNINGS      0        0         0
